*SPEF "IEEE 1481-1998"
*DESIGN "changes"
*DATE "Tue Dec 02 20:32:19 2014"
*VENDOR "TAU 2015 Contest"
*PROGRAM "Benchmark Parasitic Generator"
*VERSION "0.0"
*DESIGN_FLOW "NETLIST_TYPE_VERILOG"
*DIVIDER /
*DELIMITER :
*BUS_DELIMITER [ ]
*T_UNIT 1 PS
*C_UNIT 1 FF
*R_UNIT 1 KOHM
*L_UNIT 1 UH

*D_NET net_21 3.0173
*CONN
*I TAUGATE_191:Z O
*I inst_70:B I
*I inst_28:A1 I
*CAP
1 TAUGATE_191:Z 0.2611
2 net_21:1 0.4098
3 net_21:2 0.5009
4 net_21:3 0.2843
5 inst_70:B 0.2878
6 net_21:4 0.4685
7 net_21:5 0.3070
8 net_21:6 0.3583
9 inst_28:A1 0.1395
*RES
2 TAUGATE_191:Z net_21:1 0.1659
3 net_21:1 net_21:2 0.2742
4 net_21:2 net_21:3 0.3494
5 net_21:3 inst_70:B 0.1485
6 net_21:3 net_21:4 0.0646
7 net_21:4 net_21:5 0.0794
8 net_21:5 net_21:6 0.2161
9 net_21:6 inst_28:A1 0.1614
*END

*D_NET TAUNET_45 1.8183
*CONN
*I inst_38:ZN O
*I TAUGATE_45:A I
*CAP
1 inst_38:ZN 0.3755
2 TAUNET_45:1 0.4559
3 TAUNET_45:2 0.4050
4 TAUNET_45:3 0.0154
5 TAUNET_45:4 0.1670
6 TAUNET_45:5 0.1555
7 TAUGATE_45:A 0.2440
*RES
2 inst_38:ZN TAUNET_45:1 0.0332
3 TAUNET_45:1 TAUNET_45:2 0.0406
4 TAUNET_45:2 TAUNET_45:3 0.2732
5 TAUNET_45:3 TAUNET_45:4 0.0073
6 TAUNET_45:4 TAUNET_45:5 0.1308
7 TAUNET_45:5 TAUGATE_45:A 0.1374
*END

*D_NET net_53 3.5954
*CONN
*I inst_44:ZN O
*I inst_51:A2 I
*I inst_13:A2 I
*CAP
1 inst_44:ZN 0.3706
2 net_53:1 0.4871
3 inst_13:A2 0.4951
4 net_53:2 0.3356
5 net_53:3 0.3995
6 net_53:4 0.3845
7 net_53:5 0.4708
8 net_53:6 0.3056
9 inst_51:A2 0.3464
*RES
2 inst_44:ZN net_53:1 0.4125
3 net_53:1 inst_13:A2 0.0565
4 net_53:1 net_53:2 0.0305
5 net_53:2 net_53:3 0.2383
6 net_53:3 net_53:4 0.4020
7 net_53:4 net_53:5 0.2529
8 net_53:5 net_53:6 0.2665
9 net_53:6 inst_51:A2 0.4354
*END

*D_NET net_59 1.2788
*CONN
*I inst_54:ZN O
*I inst_74:A I
*CAP
1 inst_54:ZN 0.0788
2 net_59:1 0.3833
3 net_59:2 0.3292
4 net_59:3 0.0716
5 net_59:4 0.2236
6 inst_74:A 0.1922
*RES
2 inst_54:ZN net_59:1 0.2805
3 net_59:1 net_59:2 0.1322
4 net_59:2 net_59:3 0.1905
5 net_59:3 net_59:4 0.4017
6 net_59:4 inst_74:A 0.4680
*END

