*SPEF "IEEE 1481-1998"
*DESIGN "changes"
*DATE "Tue Dec 02 20:32:17 2014"
*VENDOR "TAU 2015 Contest"
*PROGRAM "Benchmark Parasitic Generator"
*VERSION "0.0"
*DESIGN_FLOW "NETLIST_TYPE_VERILOG"
*DIVIDER /
*DELIMITER :
*BUS_DELIMITER [ ]
*T_UNIT 1 PS
*C_UNIT 1 FF
*R_UNIT 1 KOHM
*L_UNIT 1 UH

*D_NET TAUNET_4 1.7439
*CONN
*I inst_133:QN O
*I TAUGATE_4:A I
*CAP
1 inst_133:QN 0.2611
2 TAUNET_4:1 0.4098
3 TAUNET_4:2 0.5009
4 TAUNET_4:3 0.2843
5 TAUGATE_4:A 0.2878
*RES
2 inst_133:QN TAUNET_4:1 0.1659
3 TAUNET_4:1 TAUNET_4:2 0.2742
4 TAUNET_4:2 TAUNET_4:3 0.3494
5 TAUNET_4:3 TAUGATE_4:A 0.1485
*END

*D_NET net_76 1.3760
*CONN
*I TAUGATE_3:Z O
*I inst_63:A1 I
*CAP
1 TAUGATE_3:Z 0.2110
2 net_76:1 0.3070
3 net_76:2 0.3583
4 net_76:3 0.1395
5 net_76:4 0.0646
6 net_76:5 0.0794
7 inst_63:A1 0.2161
*RES
2 TAUGATE_3:Z net_76:1 0.1614
3 net_76:1 net_76:2 0.3312
4 net_76:2 net_76:3 0.3755
5 net_76:3 net_76:4 0.4644
6 net_76:4 net_76:5 0.4559
7 net_76:5 inst_63:A1 0.4050
*END

*D_NET TAUNET_2 0.4849
*CONN
*I inst_62:ZN O
*I TAUGATE_2:A I
*CAP
1 inst_62:ZN 0.1670
2 TAUNET_2:1 0.2440
3 TAUNET_2:2 0.0332
4 TAUGATE_2:A 0.0406
*RES
2 inst_62:ZN TAUNET_2:1 0.2732
3 TAUNET_2:1 TAUNET_2:2 0.0073
4 TAUNET_2:2 TAUGATE_2:A 0.1308
*END

*D_NET net_121 8.0535
*CONN
*I TAUGATE_4:Z O
*I inst_140:A1 I
*I inst_139:A I
*I inst_44:A2 I
*I inst_30:A1 I
*I inst_28:A2 I
*I inst_43:A2 I
*CAP
1 TAUGATE_4:Z 0.2909
2 net_121:1 0.0740
3 net_121:2 0.4871
4 net_121:3 0.4951
5 net_121:4 0.4125
6 inst_139:A 0.0565
7 net_121:5 0.4708
8 net_121:6 0.3056
9 net_121:7 0.3464
10 net_121:8 0.0305
11 inst_140:A1 0.2383
12 net_121:9 0.3833
13 net_121:10 0.3292
14 net_121:11 0.0716
15 net_121:12 0.2236
16 inst_44:A2 0.1922
17 net_121:13 0.2927
18 net_121:14 0.3943
19 net_121:15 0.2211
20 inst_30:A1 0.1955
21 net_121:16 0.2621
22 net_121:17 0.4792
23 net_121:18 0.1808
24 net_121:19 0.0717
25 inst_28:A2 0.3990
26 net_121:20 0.2022
27 net_121:21 0.1593
28 net_121:22 0.4382
29 inst_43:A2 0.3498
*RES
2 TAUGATE_4:Z net_121:1 0.1285
3 net_121:1 net_121:2 0.0292
4 net_121:2 net_121:3 0.2926
5 net_121:3 net_121:4 0.4507
6 net_121:4 inst_139:A 0.3356
7 net_121:4 net_121:5 0.4020
8 net_121:5 net_121:6 0.2529
9 net_121:6 net_121:7 0.2665
10 net_121:7 net_121:8 0.4354
11 net_121:8 inst_140:A1 0.1977
12 net_121:1 net_121:9 0.2805
13 net_121:9 net_121:10 0.1322
14 net_121:10 net_121:11 0.1905
15 net_121:11 net_121:12 0.4017
16 net_121:12 inst_44:A2 0.4680
17 net_121:8 net_121:13 0.1868
18 net_121:13 net_121:14 0.4889
19 net_121:14 net_121:15 0.0703
20 net_121:15 inst_30:A1 0.3298
21 net_121:13 net_121:16 0.4035
22 net_121:16 net_121:17 0.0219
23 net_121:17 net_121:18 0.0830
24 net_121:18 net_121:19 0.4539
25 net_121:19 inst_28:A2 0.1250
26 net_121:14 net_121:20 0.4055
27 net_121:20 net_121:21 0.4519
28 net_121:21 net_121:22 0.4658
29 net_121:22 inst_43:A2 0.3690
*END

*D_NET TAUNET_3 1.3701
*CONN
*I inst_61:ZN O
*I TAUGATE_3:A I
*CAP
1 inst_61:ZN 0.0632
2 TAUNET_3:1 0.4700
3 TAUNET_3:2 0.3789
4 TAUNET_3:3 0.3545
5 TAUGATE_3:A 0.1033
*RES
2 inst_61:ZN TAUNET_3:1 0.4316
3 TAUNET_3:1 TAUNET_3:2 0.1782
4 TAUNET_3:2 TAUNET_3:3 0.4734
5 TAUNET_3:3 TAUGATE_3:A 0.0376
*END

*D_NET net_82 0.9439
*CONN
*I TAUGATE_2:Z O
*I inst_63:A2 I
*CAP
1 TAUGATE_2:Z 0.3594
2 net_82:1 0.3248
3 inst_63:A2 0.2597
*RES
2 TAUGATE_2:Z net_82:1 0.1267
3 net_82:1 inst_63:A2 0.3840
*END

