*SPEF "IEEE 1481-1998"
*DESIGN "changes"
*DATE "Tue Dec 02 20:32:20 2014"
*VENDOR "TAU 2015 Contest"
*PROGRAM "Benchmark Parasitic Generator"
*VERSION "0.0"
*DESIGN_FLOW "NETLIST_TYPE_VERILOG"
*DIVIDER /
*DELIMITER :
*BUS_DELIMITER [ ]
*T_UNIT 1 PS
*C_UNIT 1 FF
*R_UNIT 1 KOHM
*L_UNIT 1 UH

*D_NET net_107 1.7439
*CONN
*I inst_66:ZN O
*I inst_26:A3 I
*CAP
1 inst_66:ZN 0.2611
2 net_107:1 0.4098
3 net_107:2 0.5009
4 net_107:3 0.2843
5 inst_26:A3 0.2878
*RES
2 inst_66:ZN net_107:1 0.1659
3 net_107:1 net_107:2 0.2742
4 net_107:2 net_107:3 0.3494
5 net_107:3 inst_26:A3 0.1485
*END

*D_NET net_47 1.3760
*CONN
*I inst_49:ZN O
*I inst_34:A1 I
*CAP
1 inst_49:ZN 0.2110
2 net_47:1 0.3070
3 net_47:2 0.3583
4 net_47:3 0.1395
5 net_47:4 0.0646
6 net_47:5 0.0794
7 inst_34:A1 0.2161
*RES
2 inst_49:ZN net_47:1 0.1614
3 net_47:1 net_47:2 0.3312
4 net_47:2 net_47:3 0.3755
5 net_47:3 net_47:4 0.4644
6 net_47:4 net_47:5 0.4559
7 net_47:5 inst_34:A1 0.4050
*END

*D_NET P2 4.1543
*CONN
*I inst_132:QN O
*P P2 O
*I inst_47:A1 I
*I inst_72:B I
*CAP
1 inst_132:QN 0.1670
2 P2:1 0.2440
3 P2:2 0.0332
4 P2 0.0406
5 P2:3 0.3706
6 P2:4 0.0740
7 P2:5 0.4871
8 inst_47:A1 0.4951
9 P2:6 0.3356
10 P2:7 0.3995
11 P2:8 0.3845
12 P2:9 0.4708
13 P2:10 0.3056
14 inst_72:B 0.3464
*RES
2 inst_132:QN P2:1 0.2732
3 P2:1 P2:2 0.0073
4 P2:2 P2 0.1308
5 P2:1 P2:3 0.4125
6 P2:3 P2:4 0.0565
7 P2:4 P2:5 0.1285
8 P2:5 inst_47:A1 0.0292
9 P2:3 P2:6 0.0305
10 P2:6 P2:7 0.2383
11 P2:7 P2:8 0.4020
12 P2:8 P2:9 0.2529
13 P2:9 P2:10 0.2665
14 P2:10 inst_72:B 0.4354
*END

*D_NET net_116 1.2788
*CONN
*I inst_20:ZN O
*I inst_22:A3 I
*CAP
1 inst_20:ZN 0.0788
2 net_116:1 0.3833
3 net_116:2 0.3292
4 net_116:3 0.0716
5 net_116:4 0.2236
6 inst_22:A3 0.1922
*RES
2 inst_20:ZN net_116:1 0.2805
3 net_116:1 net_116:2 0.1322
4 net_116:2 net_116:3 0.1905
5 net_116:3 net_116:4 0.4017
6 net_116:4 inst_22:A3 0.4680
*END

*D_NET net_61 1.2308
*CONN
*I inst_56:ZN O
*I inst_24:A1 I
*CAP
1 inst_56:ZN 0.2331
2 net_61:1 0.3943
3 net_61:2 0.2211
4 net_61:3 0.1955
5 inst_24:A1 0.1868
*RES
2 inst_56:ZN net_61:1 0.4889
3 net_61:1 net_61:2 0.0703
4 net_61:2 net_61:3 0.3298
5 net_61:3 inst_24:A1 0.4131
*END

*D_NET net_30 3.3358
*CONN
*I inst_126:QN O
*I inst_29:A2 I
*I inst_71:B I
*I inst_43:A1 I
*CAP
1 inst_126:QN 0.2621
2 net_30:1 0.1808
3 net_30:2 0.0717
4 net_30:3 0.3990
5 net_30:4 0.4035
6 net_30:5 0.0219
7 inst_71:B 0.0830
8 net_30:6 0.4382
9 net_30:7 0.3498
10 inst_29:A2 0.4055
11 net_30:8 0.2503
12 inst_43:A1 0.4700
*RES
2 inst_126:QN net_30:1 0.4539
3 net_30:1 net_30:2 0.1250
4 net_30:2 net_30:3 0.3196
5 net_30:3 net_30:4 0.4976
6 net_30:4 net_30:5 0.3591
7 net_30:5 inst_71:B 0.2780
8 net_30:2 net_30:6 0.4519
9 net_30:6 net_30:7 0.4658
10 net_30:7 inst_29:A2 0.3690
11 net_30:7 net_30:8 0.3789
12 net_30:8 inst_43:A1 0.3545
*END

*D_NET net_105 1.0398
*CONN
*I inst_37:ZN O
*I inst_38:A1 I
*CAP
1 inst_37:ZN 0.4316
2 net_105:1 0.4734
3 net_105:2 0.0376
4 inst_38:A1 0.0972
*RES
2 inst_37:ZN net_105:1 0.3594
3 net_105:1 net_105:2 0.0525
4 net_105:2 inst_38:A1 0.3248
*END

*D_NET net_91 1.7532
*CONN
*I inst_7:ZN O
*I inst_21:A3 I
*CAP
1 inst_7:ZN 0.1267
2 net_91:1 0.2434
3 net_91:2 0.3726
4 net_91:3 0.2980
5 net_91:4 0.2454
6 inst_21:A3 0.4670
*RES
2 inst_7:ZN net_91:1 0.1921
3 net_91:1 net_91:2 0.1376
4 net_91:2 net_91:3 0.4443
5 net_91:3 net_91:4 0.1288
6 net_91:4 inst_21:A3 0.3022
*END

*D_NET P3 3.7900
*CONN
*I inst_134:QN O
*P P3 O
*I inst_46:A1 I
*I inst_73:B I
*CAP
1 inst_134:QN 0.0668
2 P3:1 0.4131
3 P3:2 0.4004
4 P3:3 0.4814
5 P3:4 0.1341
6 P3 0.3915
7 P3:5 0.3147
8 P3:6 0.2761
9 inst_46:A1 0.3643
10 P3:7 0.2731
11 P3:8 0.1525
12 P3:9 0.0518
13 P3:10 0.2548
14 inst_73:B 0.2154
*RES
2 inst_134:QN P3:1 0.0282
3 P3:1 P3:2 0.3089
4 P3:2 P3:3 0.0253
5 P3:3 P3:4 0.3105
6 P3:4 P3 0.1881
7 P3:2 P3:5 0.2288
8 P3:5 P3:6 0.0666
9 P3:6 inst_46:A1 0.3854
10 P3:5 P3:7 0.4921
11 P3:7 P3:8 0.1648
12 P3:8 P3:9 0.1855
13 P3:9 P3:10 0.0112
14 P3:10 inst_73:B 0.3530
*END

*D_NET net_62 0.7963
*CONN
*I inst_57:ZN O
*I inst_23:A1 I
*CAP
1 inst_57:ZN 0.2239
2 net_62:1 0.4230
3 inst_23:A1 0.1494
*RES
2 inst_57:ZN net_62:1 0.3290
3 net_62:1 inst_23:A1 0.1620
*END

*D_NET net_106 1.1549
*CONN
*I inst_41:ZN O
*I inst_26:A1 I
*CAP
1 inst_41:ZN 0.2883
2 net_106:1 0.4381
3 net_106:2 0.3484
4 inst_26:A1 0.0801
*RES
2 inst_41:ZN net_106:1 0.1392
3 net_106:1 net_106:2 0.1891
4 net_106:2 inst_26:A1 0.0464
*END

*D_NET net_99 1.0649
*CONN
*I inst_24:ZN O
*I inst_136:D I
*CAP
1 inst_24:ZN 0.0279
2 net_99:1 0.0649
3 net_99:2 0.0510
4 net_99:3 0.1600
5 net_99:4 0.1748
6 net_99:5 0.4787
7 inst_136:D 0.1076
*RES
2 inst_24:ZN net_99:1 0.4606
3 net_99:1 net_99:2 0.3388
4 net_99:2 net_99:3 0.4657
5 net_99:3 net_99:4 0.3595
6 net_99:4 net_99:5 0.2471
7 net_99:5 inst_136:D 0.0832
*END

*D_NET net_55 0.8209
*CONN
*I inst_50:ZN O
*I inst_60:A1 I
*CAP
1 inst_50:ZN 0.3736
2 net_55:1 0.3644
3 inst_60:A1 0.0829
*RES
2 inst_50:ZN net_55:1 0.1977
3 net_55:1 inst_60:A1 0.4694
*END

*D_NET net_46 5.0401
*CONN
*I inst_28:ZN O
*I inst_19:A2 I
*I inst_32:A1 I
*I inst_49:A1 I
*CAP
1 inst_28:ZN 0.3882
2 net_46:1 0.0413
3 net_46:2 0.4651
4 net_46:3 0.4065
5 net_46:4 0.3164
6 net_46:5 0.3513
7 inst_49:A1 0.1165
8 net_46:6 0.2613
9 net_46:7 0.3587
10 net_46:8 0.1869
11 net_46:9 0.4974
12 net_46:10 0.3047
13 inst_32:A1 0.1200
14 net_46:11 0.2101
15 net_46:12 0.3390
16 net_46:13 0.2046
17 net_46:14 0.3404
18 inst_19:A2 0.1317
*RES
2 inst_28:ZN net_46:1 0.0986
3 net_46:1 net_46:2 0.2243
4 net_46:2 net_46:3 0.1286
5 net_46:3 net_46:4 0.4269
6 net_46:4 net_46:5 0.2482
7 net_46:5 inst_49:A1 0.2195
8 net_46:2 net_46:6 0.4969
9 net_46:6 net_46:7 0.1210
10 net_46:7 net_46:8 0.1733
11 net_46:8 net_46:9 0.1014
12 net_46:9 net_46:10 0.0283
13 net_46:10 inst_32:A1 0.2763
14 net_46:6 net_46:11 0.3617
15 net_46:11 net_46:12 0.0856
16 net_46:12 net_46:13 0.3629
17 net_46:13 net_46:14 0.2821
18 net_46:14 inst_19:A2 0.3900
*END

*D_NET net_118 1.2298
*CONN
*I inst_140:ZN O
*I inst_29:A1 I
*CAP
1 inst_140:ZN 0.1253
2 net_118:1 0.3735
3 net_118:2 0.1079
4 net_118:3 0.3323
5 inst_29:A1 0.2907
*RES
2 inst_140:ZN net_118:1 0.0362
3 net_118:1 net_118:2 0.4966
4 net_118:2 net_118:3 0.4101
5 net_118:3 inst_29:A1 0.2702
*END

*D_NET net_129 1.9659
*CONN
*I inst_32:ZN O
*I inst_14:A1 I
*I inst_36:A2 I
*CAP
1 inst_32:ZN 0.0419
2 net_129:1 0.0903
3 net_129:2 0.0485
4 net_129:3 0.4602
5 inst_14:A1 0.4262
6 net_129:4 0.3734
7 net_129:5 0.1567
8 net_129:6 0.1247
9 inst_36:A2 0.2439
*RES
2 inst_32:ZN net_129:1 0.2009
3 net_129:1 net_129:2 0.3114
4 net_129:2 net_129:3 0.3090
5 net_129:3 inst_14:A1 0.3972
6 net_129:2 net_129:4 0.2588
7 net_129:4 net_129:5 0.4474
8 net_129:5 net_129:6 0.3528
9 net_129:6 inst_36:A2 0.0472
*END

*D_NET net_119 1.3929
*CONN
*I inst_34:ZN O
*I inst_36:A1 I
*CAP
1 inst_34:ZN 0.1981
2 net_119:1 0.0169
3 net_119:2 0.4026
4 net_119:3 0.4684
5 net_119:4 0.2490
6 inst_36:A1 0.0579
*RES
2 inst_34:ZN net_119:1 0.0423
3 net_119:1 net_119:2 0.2861
4 net_119:2 net_119:3 0.4278
5 net_119:3 net_119:4 0.3875
6 net_119:4 inst_36:A1 0.4796
*END

*D_NET net_98 1.0064
*CONN
*I inst_67:ZN O
*I inst_25:A3 I
*CAP
1 inst_67:ZN 0.1554
2 net_98:1 0.4380
3 inst_25:A3 0.4130
*RES
2 inst_67:ZN net_98:1 0.4990
3 net_98:1 inst_25:A3 0.2134
*END

*D_NET P7 5.1346
*CONN
*I inst_137:QN O
*P P7 O
*I inst_51:A1 I
*I inst_58:A1 I
*I inst_13:A1 I
*CAP
1 inst_137:QN 0.4947
2 P7:1 0.2854
3 P7:2 0.4464
4 P7:3 0.2438
5 P7:4 0.2969
6 P7 0.3091
7 P7:5 0.2468
8 P7:6 0.4002
9 P7:7 0.3652
10 inst_51:A1 0.1857
11 P7:8 0.1130
12 P7:9 0.1026
13 inst_58:A1 0.1939
14 P7:10 0.3663
15 P7:11 0.2540
16 P7:12 0.0526
17 P7:13 0.2388
18 P7:14 0.1787
19 inst_13:A1 0.3603
*RES
2 inst_137:QN P7:1 0.5006
3 P7:1 P7:2 0.2264
4 P7:2 P7:3 0.3973
5 P7:3 P7:4 0.2044
6 P7:4 P7 0.1531
7 P7:4 P7:5 0.0562
8 P7:5 P7:6 0.0882
9 P7:6 P7:7 0.4386
10 P7:7 inst_51:A1 0.2715
11 P7:7 P7:8 0.1095
12 P7:8 P7:9 0.0212
13 P7:9 inst_58:A1 0.1417
14 P7:2 P7:10 0.0603
15 P7:10 P7:11 0.0863
16 P7:11 P7:12 0.3102
17 P7:12 P7:13 0.1239
18 P7:13 P7:14 0.2473
19 P7:14 inst_13:A1 0.0055
*END

*D_NET net_117 3.0444
*CONN
*I inst_30:ZN O
*I inst_20:A3 I
*I inst_35:A1 I
*I inst_33:A1 I
*CAP
1 inst_30:ZN 0.2412
2 net_117:1 0.4441
3 net_117:2 0.4218
4 net_117:3 0.0848
5 net_117:4 0.0266
6 inst_33:A1 0.0274
7 net_117:5 0.4317
8 net_117:6 0.1801
9 net_117:7 0.2826
10 net_117:8 0.3420
11 inst_35:A1 0.0965
12 net_117:9 0.0327
13 net_117:10 0.0608
14 inst_20:A3 0.3721
*RES
2 inst_30:ZN net_117:1 0.4218
3 net_117:1 net_117:2 0.2061
4 net_117:2 net_117:3 0.2110
5 net_117:3 net_117:4 0.4583
6 net_117:4 inst_33:A1 0.3985
7 net_117:3 net_117:5 0.2555
8 net_117:5 net_117:6 0.1304
9 net_117:6 net_117:7 0.3675
10 net_117:7 net_117:8 0.4634
11 net_117:8 inst_35:A1 0.2869
12 net_117:3 net_117:9 0.4648
13 net_117:9 net_117:10 0.2376
14 net_117:10 inst_20:A3 0.1146
*END

*D_NET B1 0.6447
*CONN
*P B1 I
*I inst_4:A1 I
*CAP
1 B1 0.1439
2 B1:1 0.2502
3 inst_4:A1 0.2506
*RES
2 B1 B1:1 0.4486
3 B1:1 inst_4:A1 0.0641
*END

*D_NET net_104 0.3299
*CONN
*I inst_39:ZN O
*I inst_40:A1 I
*CAP
1 inst_39:ZN 0.0079
2 net_104:1 0.2219
3 inst_40:A1 0.1001
*RES
2 inst_39:ZN net_104:1 0.2747
3 net_104:1 inst_40:A1 0.1704
*END

*D_NET net_74 0.1666
*CONN
*I inst_70:Z O
*I inst_128:D I
*CAP
1 inst_70:Z 0.0121
2 net_74:1 0.0267
3 inst_128:D 0.1278
*RES
2 inst_70:Z net_74:1 0.1079
3 net_74:1 inst_128:D 0.3621
*END

*D_NET net_93 2.0149
*CONN
*I inst_21:ZN O
*I inst_23:A3 I
*CAP
1 inst_21:ZN 0.3490
2 net_93:1 0.3195
3 net_93:2 0.4748
4 net_93:3 0.2505
5 net_93:4 0.2036
6 net_93:5 0.3990
7 inst_23:A3 0.0185
*RES
2 inst_21:ZN net_93:1 0.3777
3 net_93:1 net_93:2 0.2437
4 net_93:2 net_93:3 0.3641
5 net_93:3 net_93:4 0.1411
6 net_93:4 net_93:5 0.2452
7 net_93:5 inst_23:A3 0.2723
*END

*D_NET net_72 0.3445
*CONN
*I inst_68:Z O
*I inst_124:D I
*CAP
1 inst_68:Z 0.2449
2 net_72:1 0.0917
3 inst_124:D 0.0078
*RES
2 inst_68:Z net_72:1 0.0227
3 net_72:1 inst_124:D 0.0264
*END

*D_NET net_122 5.9015
*CONN
*I inst_18:ZN O
*I inst_68:S I
*I inst_70:S I
*I inst_31:A2 I
*I inst_69:S I
*I inst_71:S I
*CAP
1 inst_18:ZN 0.1906
2 net_122:1 0.0937
3 net_122:2 0.2944
4 inst_68:S 0.3987
5 net_122:3 0.1157
6 net_122:4 0.1901
7 net_122:5 0.2138
8 net_122:6 0.5008
9 net_122:7 0.2979
10 inst_70:S 0.3428
11 net_122:8 0.3676
12 net_122:9 0.1603
13 net_122:10 0.4423
14 net_122:11 0.1159
15 net_122:12 0.4527
16 inst_31:A2 0.1465
17 net_122:13 0.1861
18 net_122:14 0.4367
19 inst_69:S 0.3452
20 net_122:15 0.1692
21 inst_71:S 0.4407
*RES
2 inst_18:ZN net_122:1 0.0209
3 net_122:1 net_122:2 0.1182
4 net_122:2 inst_68:S 0.1067
5 net_122:2 net_122:3 0.2325
6 net_122:3 net_122:4 0.2733
7 net_122:4 net_122:5 0.1266
8 net_122:5 net_122:6 0.3814
9 net_122:6 net_122:7 0.1363
10 net_122:7 inst_70:S 0.3277
11 net_122:5 net_122:8 0.1463
12 net_122:8 net_122:9 0.4621
13 net_122:9 net_122:10 0.4065
14 net_122:10 net_122:11 0.0227
15 net_122:11 net_122:12 0.2236
16 net_122:12 inst_31:A2 0.4114
17 net_122:2 net_122:13 0.0313
18 net_122:13 net_122:14 0.1217
19 net_122:14 inst_69:S 0.0111
20 net_122:3 net_122:15 0.4978
21 net_122:15 inst_71:S 0.2563
*END

*D_NET net_70 5.0315
*CONN
*I inst_29:ZN O
*I inst_19:A3 I
*I inst_14:A2 I
*I inst_34:A2 I
*I inst_60:A2 I
*CAP
1 inst_29:ZN 0.2603
2 net_70:1 0.3072
3 net_70:2 0.2768
4 net_70:3 0.1679
5 inst_34:A2 0.2053
6 net_70:4 0.3806
7 net_70:5 0.4946
8 net_70:6 0.4608
9 net_70:7 0.4692
10 net_70:8 0.4766
11 inst_14:A2 0.0589
12 net_70:9 0.4748
13 net_70:10 0.0806
14 inst_19:A3 0.0407
15 net_70:11 0.2640
16 net_70:12 0.1831
17 net_70:13 0.4110
18 inst_60:A2 0.0191
*RES
2 inst_29:ZN net_70:1 0.2140
3 net_70:1 net_70:2 0.3306
4 net_70:2 net_70:3 0.1569
5 net_70:3 inst_34:A2 0.2580
6 net_70:2 net_70:4 0.0962
7 net_70:4 net_70:5 0.2415
8 net_70:5 net_70:6 0.1750
9 net_70:6 net_70:7 0.4103
10 net_70:7 net_70:8 0.0845
11 net_70:8 inst_14:A2 0.1888
12 net_70:3 net_70:9 0.2069
13 net_70:9 net_70:10 0.0491
14 net_70:10 inst_19:A3 0.4137
15 net_70:7 net_70:11 0.3538
16 net_70:11 net_70:12 0.4300
17 net_70:12 net_70:13 0.3629
18 net_70:13 inst_60:A2 0.0787
*END

*D_NET P4 4.1731
*CONN
*I inst_135:QN O
*P P4 O
*I inst_57:A1 I
*I inst_50:A1 I
*I inst_140:A2 I
*CAP
1 inst_135:QN 0.2971
2 P4:1 0.5010
3 P4:2 0.3538
4 P4:3 0.4649
5 P4:4 0.0482
6 P4:5 0.1062
7 inst_57:A1 0.2963
8 P4:6 0.0470
9 P4:7 0.0745
10 P4:8 0.1738
11 P4 0.4336
12 P4:9 0.3461
13 P4:10 0.3729
14 P4:11 0.0418
15 inst_50:A1 0.3671
16 P4:12 0.1139
17 P4:13 0.0489
18 inst_140:A2 0.0861
*RES
2 inst_135:QN P4:1 0.4911
3 P4:1 P4:2 0.2002
4 P4:2 P4:3 0.2573
5 P4:3 P4:4 0.3761
6 P4:4 P4:5 0.0616
7 P4:5 inst_57:A1 0.4298
8 P4:3 P4:6 0.4556
9 P4:6 P4:7 0.1284
10 P4:7 P4:8 0.0036
11 P4:8 P4 0.1731
12 P4:7 P4:9 0.3815
13 P4:9 P4:10 0.1458
14 P4:10 P4:11 0.4915
15 P4:11 inst_50:A1 0.0683
16 P4:11 P4:12 0.1477
17 P4:12 P4:13 0.4806
18 P4:13 inst_140:A2 0.3473
*END

*D_NET net_14 3.4495
*CONN
*I inst_129:QN O
*I inst_9:A1 I
*I inst_17:A2 I
*I inst_0:B I
*I inst_18:A3 I
*CAP
1 inst_129:QN 0.0198
2 net_14:1 0.1100
3 net_14:2 0.2818
4 net_14:3 0.3290
5 inst_9:A1 0.1592
6 net_14:4 0.0096
7 net_14:5 0.4963
8 inst_17:A2 0.2377
9 net_14:6 0.2352
10 net_14:7 0.3112
11 net_14:8 0.1345
12 net_14:9 0.4134
13 inst_0:B 0.0741
14 net_14:10 0.2343
15 net_14:11 0.1106
16 net_14:12 0.0283
17 inst_18:A3 0.2644
*RES
2 inst_129:QN net_14:1 0.4236
3 net_14:1 net_14:2 0.3328
4 net_14:2 net_14:3 0.1906
5 net_14:3 inst_9:A1 0.5003
6 net_14:3 net_14:4 0.2571
7 net_14:4 net_14:5 0.3610
8 net_14:5 inst_17:A2 0.0042
9 net_14:5 net_14:6 0.4290
10 net_14:6 net_14:7 0.4891
11 net_14:7 net_14:8 0.0621
12 net_14:8 net_14:9 0.2122
13 net_14:9 inst_0:B 0.2034
14 net_14:3 net_14:10 0.3395
15 net_14:10 net_14:11 0.4160
16 net_14:11 net_14:12 0.1311
17 net_14:12 inst_18:A3 0.1702
*END

*D_NET P1 2.7314
*CONN
*I inst_130:QN O
*P P1 O
*I inst_48:A1 I
*I inst_61:A1 I
*CAP
1 inst_130:QN 0.0383
2 P1:1 0.2177
3 P1:2 0.0520
4 P1:3 0.1787
5 P1 0.3277
6 P1:4 0.0500
7 P1:5 0.3450
8 P1:6 0.2552
9 P1:7 0.2397
10 inst_48:A1 0.3943
11 P1:8 0.2910
12 inst_61:A1 0.3418
*RES
2 inst_130:QN P1:1 0.2308
3 P1:1 P1:2 0.1825
4 P1:2 P1:3 0.4154
5 P1:3 P1 0.4205
6 P1:1 P1:4 0.0450
7 P1:4 P1:5 0.3586
8 P1:5 P1:6 0.1804
9 P1:6 P1:7 0.2132
10 P1:7 inst_48:A1 0.3448
11 P1:4 P1:8 0.0277
12 P1:8 inst_61:A1 0.2232
*END

*D_NET net_26 5.1757
*CONN
*I inst_127:QN O
*I inst_11:A1 I
*I inst_12:A1 I
*I inst_42:A2 I
*I inst_18:A2 I
*I inst_17:A3 I
*CAP
1 inst_127:QN 0.3825
2 net_26:1 0.0258
3 net_26:2 0.0722
4 net_26:3 0.0268
5 net_26:4 0.0274
6 net_26:5 0.0955
7 inst_11:A1 0.0758
8 net_26:6 0.0316
9 net_26:7 0.1823
10 net_26:8 0.0755
11 net_26:9 0.3163
12 inst_12:A1 0.3515
13 net_26:10 0.0188
14 net_26:11 0.4709
15 net_26:12 0.4204
16 net_26:13 0.0122
17 inst_42:A2 0.2688
18 net_26:14 0.3150
19 net_26:15 0.0137
20 net_26:16 0.2108
21 inst_18:A2 0.3101
22 net_26:17 0.3083
23 net_26:18 0.1250
24 net_26:19 0.3526
25 net_26:20 0.3715
26 inst_17:A3 0.3144
*RES
2 inst_127:QN net_26:1 0.0730
3 net_26:1 net_26:2 0.2996
4 net_26:2 net_26:3 0.1500
5 net_26:3 net_26:4 0.2720
6 net_26:4 net_26:5 0.0605
7 net_26:5 inst_11:A1 0.1555
8 net_26:4 net_26:6 0.2983
9 net_26:6 net_26:7 0.4269
10 net_26:7 net_26:8 0.0493
11 net_26:8 net_26:9 0.0341
12 net_26:9 inst_12:A1 0.3020
13 net_26:7 net_26:10 0.0936
14 net_26:10 net_26:11 0.3051
15 net_26:11 net_26:12 0.1197
16 net_26:12 net_26:13 0.2956
17 net_26:13 inst_42:A2 0.2210
18 net_26:3 net_26:14 0.0161
19 net_26:14 net_26:15 0.2047
20 net_26:15 net_26:16 0.3729
21 net_26:16 inst_18:A2 0.0610
22 net_26:10 net_26:17 0.3618
23 net_26:17 net_26:18 0.0820
24 net_26:18 net_26:19 0.2174
25 net_26:19 net_26:20 0.3638
26 net_26:20 inst_17:A3 0.4097
*END

*D_NET net_113 3.5294
*CONN
*I inst_36:ZN O
*I inst_6:A2 I
*I inst_20:A1 I
*I inst_7:A2 I
*I inst_37:A1 I
*CAP
1 inst_36:ZN 0.4080
2 net_113:1 0.4981
3 net_113:2 0.3134
4 net_113:3 0.4059
5 net_113:4 0.1396
6 inst_20:A1 0.0910
7 net_113:5 0.0712
8 net_113:6 0.0044
9 net_113:7 0.1986
10 inst_6:A2 0.0476
11 net_113:8 0.2784
12 net_113:9 0.2008
13 inst_7:A2 0.3776
14 net_113:10 0.1138
15 inst_37:A1 0.3809
*RES
2 inst_36:ZN net_113:1 0.1278
3 net_113:1 net_113:2 0.3093
4 net_113:2 net_113:3 0.3342
5 net_113:3 net_113:4 0.2150
6 net_113:4 inst_20:A1 0.0109
7 net_113:2 net_113:5 0.0521
8 net_113:5 net_113:6 0.0546
9 net_113:6 net_113:7 0.0043
10 net_113:7 inst_6:A2 0.2737
11 net_113:4 net_113:8 0.2937
12 net_113:8 net_113:9 0.0093
13 net_113:9 inst_7:A2 0.2822
14 net_113:9 net_113:10 0.3567
15 net_113:10 inst_37:A1 0.3242
*END

*D_NET net_76 1.2868
*CONN
*I inst_61:ZN O
*I inst_63:A1 I
*CAP
1 inst_61:ZN 0.3863
2 net_76:1 0.1037
3 net_76:2 0.3572
4 net_76:3 0.2211
5 inst_63:A1 0.2185
*RES
2 inst_61:ZN net_76:1 0.2266
3 net_76:1 net_76:2 0.2538
4 net_76:2 net_76:3 0.1297
5 net_76:3 inst_63:A1 0.4791
*END

*D_NET net_101 1.8977
*CONN
*I inst_25:ZN O
*I inst_137:D I
*CAP
1 inst_25:ZN 0.2444
2 net_101:1 0.3737
3 net_101:2 0.3015
4 net_101:3 0.1830
5 net_101:4 0.3035
6 net_101:5 0.4053
7 inst_137:D 0.0863
*RES
2 inst_25:ZN net_101:1 0.2362
3 net_101:1 net_101:2 0.1365
4 net_101:2 net_101:3 0.0277
5 net_101:3 net_101:4 0.4263
6 net_101:4 net_101:5 0.2912
7 net_101:5 inst_137:D 0.1111
*END

*D_NET net_111 2.5457
*CONN
*I inst_13:ZN O
*I inst_39:A2 I
*I inst_66:A1 I
*CAP
1 inst_13:ZN 0.0512
2 net_111:1 0.0984
3 net_111:2 0.0368
4 inst_66:A1 0.4376
5 net_111:3 0.4832
6 net_111:4 0.2776
7 net_111:5 0.3781
8 net_111:6 0.3766
9 net_111:7 0.0185
10 inst_39:A2 0.3877
*RES
2 inst_13:ZN net_111:1 0.1423
3 net_111:1 net_111:2 0.1283
4 net_111:2 inst_66:A1 0.1146
5 net_111:2 net_111:3 0.1588
6 net_111:3 net_111:4 0.3738
7 net_111:4 net_111:5 0.4556
8 net_111:5 net_111:6 0.1835
9 net_111:6 net_111:7 0.0020
10 net_111:7 inst_39:A2 0.2614
*END

*D_NET net_90 1.4224
*CONN
*I inst_6:ZN O
*I inst_64:A1 I
*CAP
1 inst_6:ZN 0.2164
2 net_90:1 0.1158
3 net_90:2 0.1153
4 net_90:3 0.3810
5 net_90:4 0.1100
6 net_90:5 0.1662
7 inst_64:A1 0.3178
*RES
2 inst_6:ZN net_90:1 0.2541
3 net_90:1 net_90:2 0.2497
4 net_90:2 net_90:3 0.4625
5 net_90:3 net_90:4 0.2343
6 net_90:4 net_90:5 0.0981
7 net_90:5 inst_64:A1 0.3461
*END

*D_NET net_40 0.6556
*CONN
*I inst_2:ZN O
*I inst_54:A1 I
*CAP
1 inst_2:ZN 0.4109
2 net_40:1 0.2326
3 inst_54:A1 0.0121
*RES
2 inst_2:ZN net_40:1 0.2674
3 net_40:1 inst_54:A1 0.2072
*END

*D_NET net_100 8.4576
*CONN
*P START I
*I inst_24:A2 I
*I inst_27:A2 I
*I inst_25:A2 I
*I inst_23:A2 I
*I inst_15:A1 I
*I inst_8:A2 I
*I inst_16:A1 I
*CAP
1 START 0.2455
2 net_100:1 0.0138
3 net_100:2 0.4527
4 inst_24:A2 0.3131
5 net_100:3 0.4199
6 net_100:4 0.3736
7 net_100:5 0.3306
8 inst_27:A2 0.3042
9 net_100:6 0.0758
10 net_100:7 0.0262
11 net_100:8 0.3812
12 net_100:9 0.0656
13 inst_25:A2 0.1550
14 net_100:10 0.3913
15 net_100:11 0.2131
16 net_100:12 0.3201
17 net_100:13 0.0320
18 net_100:14 0.2786
19 inst_23:A2 0.3378
20 net_100:15 0.4105
21 net_100:16 0.3004
22 net_100:17 0.3665
23 net_100:18 0.1341
24 inst_15:A1 0.0859
25 net_100:19 0.1840
26 net_100:20 0.4010
27 net_100:21 0.3573
28 net_100:22 0.4559
29 inst_8:A2 0.3575
30 net_100:23 0.1660
31 net_100:24 0.2177
32 inst_16:A1 0.2908
*RES
2 START net_100:1 0.4392
3 net_100:1 net_100:2 0.4048
4 net_100:2 inst_24:A2 0.0368
5 net_100:2 net_100:3 0.1317
6 net_100:3 net_100:4 0.1481
7 net_100:4 net_100:5 0.2485
8 net_100:5 inst_27:A2 0.2201
9 net_100:3 net_100:6 0.0047
10 net_100:6 net_100:7 0.1418
11 net_100:7 net_100:8 0.2138
12 net_100:8 net_100:9 0.3805
13 net_100:9 inst_25:A2 0.2523
14 net_100:1 net_100:10 0.4364
15 net_100:10 net_100:11 0.2454
16 net_100:11 net_100:12 0.4527
17 net_100:12 net_100:13 0.2663
18 net_100:13 net_100:14 0.3641
19 net_100:14 inst_23:A2 0.1740
20 net_100:8 net_100:15 0.1706
21 net_100:15 net_100:16 0.3812
22 net_100:16 net_100:17 0.0751
23 net_100:17 net_100:18 0.1227
24 net_100:18 inst_15:A1 0.0294
25 net_100:14 net_100:19 0.1715
26 net_100:19 net_100:20 0.3050
27 net_100:20 net_100:21 0.3594
28 net_100:21 net_100:22 0.4902
29 net_100:22 inst_8:A2 0.4716
30 net_100:8 net_100:23 0.3318
31 net_100:23 net_100:24 0.3308
32 net_100:24 inst_16:A1 0.4080
*END

*D_NET CNTVCON2 2.0785
*CONN
*I inst_9:ZN O
*P CNTVCON2 O
*P CNTVCO2 O
*CAP
1 inst_9:ZN 0.1932
2 CNTVCON2:1 0.0053
3 CNTVCO2 0.1459
4 CNTVCON2:2 0.4574
5 CNTVCON2:3 0.4683
6 CNTVCON2:4 0.1543
7 CNTVCON2:5 0.4873
8 CNTVCON2 0.1669
*RES
2 inst_9:ZN CNTVCON2:1 0.0437
3 CNTVCON2:1 CNTVCO2 0.4598
4 CNTVCON2:1 CNTVCON2:2 0.4800
5 CNTVCON2:2 CNTVCON2:3 0.4518
6 CNTVCON2:3 CNTVCON2:4 0.0570
7 CNTVCON2:4 CNTVCON2:5 0.4909
8 CNTVCON2:5 CNTVCON2 0.0572
*END

*D_NET net_69 1.5455
*CONN
*I inst_60:ZN O
*I inst_74:B I
*CAP
1 inst_60:ZN 0.1013
2 net_69:1 0.4210
3 net_69:2 0.2594
4 net_69:3 0.3565
5 inst_74:B 0.4074
*RES
2 inst_60:ZN net_69:1 0.4309
3 net_69:1 net_69:2 0.4474
4 net_69:2 net_69:3 0.2931
5 net_69:3 inst_74:B 0.2848
*END

*D_NET net_85 1.9018
*CONN
*I inst_15:ZN O
*I inst_129:D I
*CAP
1 inst_15:ZN 0.3320
2 net_85:1 0.3663
3 net_85:2 0.1512
4 net_85:3 0.1368
5 net_85:4 0.4493
6 inst_129:D 0.4663
*RES
2 inst_15:ZN net_85:1 0.2866
3 net_85:1 net_85:2 0.1873
4 net_85:2 net_85:3 0.1599
5 net_85:3 net_85:4 0.3589
6 net_85:4 inst_129:D 0.4697
*END

*D_NET net_123 11.8527
*CONN
*I inst_31:ZN O
*I inst_72:S I
*I inst_73:S I
*I inst_67:A1 I
*I inst_21:A2 I
*I inst_22:A2 I
*I inst_26:A2 I
*I inst_61:A2 I
*I inst_74:S I
*I inst_59:A2 I
*I inst_62:A1 I
*I inst_57:A2 I
*I inst_56:A2 I
*I inst_58:A2 I
*CAP
1 inst_31:ZN 0.0401
2 net_123:1 0.1883
3 net_123:2 0.3075
4 net_123:3 0.0604
5 inst_58:A2 0.3908
6 net_123:4 0.3010
7 net_123:5 0.1515
8 net_123:6 0.0492
9 inst_73:S 0.2707
10 net_123:7 0.3648
11 net_123:8 0.4404
12 net_123:9 0.3187
13 net_123:10 0.4272
14 net_123:11 0.0224
15 inst_67:A1 0.4026
16 net_123:12 0.1530
17 net_123:13 0.2582
18 net_123:14 0.4484
19 inst_21:A2 0.0762
20 net_123:15 0.2972
21 net_123:16 0.3936
22 net_123:17 0.4880
23 net_123:18 0.4169
24 net_123:19 0.3167
25 inst_22:A2 0.3376
26 net_123:20 0.1251
27 net_123:21 0.0048
28 net_123:22 0.3126
29 net_123:23 0.0195
30 inst_26:A2 0.0541
31 net_123:24 0.4904
32 inst_61:A2 0.0915
33 net_123:25 0.0690
34 net_123:26 0.2231
35 net_123:27 0.2934
36 inst_74:S 0.0661
37 net_123:28 0.2766
38 net_123:29 0.4045
39 inst_59:A2 0.4267
40 net_123:30 0.4130
41 inst_62:A1 0.3462
42 net_123:31 0.0519
43 inst_57:A2 0.4874
44 net_123:32 0.4333
45 inst_56:A2 0.0645
46 net_123:33 0.0924
47 inst_72:S 0.1850
*RES
2 inst_31:ZN net_123:1 0.2921
3 net_123:1 net_123:2 0.4162
4 net_123:2 net_123:3 0.1285
5 net_123:3 inst_58:A2 0.0491
6 net_123:3 net_123:4 0.0711
7 net_123:4 net_123:5 0.2365
8 net_123:5 net_123:6 0.0021
9 net_123:6 inst_73:S 0.2080
10 net_123:5 net_123:7 0.2784
11 net_123:7 net_123:8 0.1803
12 net_123:8 net_123:9 0.0882
13 net_123:9 net_123:10 0.2924
14 net_123:10 net_123:11 0.4780
15 net_123:11 inst_67:A1 0.3510
16 net_123:3 net_123:12 0.1986
17 net_123:12 net_123:13 0.3922
18 net_123:13 net_123:14 0.3950
19 net_123:14 inst_21:A2 0.2666
20 net_123:13 net_123:15 0.1073
21 net_123:15 net_123:16 0.3579
22 net_123:16 net_123:17 0.1300
23 net_123:17 net_123:18 0.3795
24 net_123:18 net_123:19 0.2362
25 net_123:19 inst_22:A2 0.1908
26 net_123:7 net_123:20 0.3700
27 net_123:20 net_123:21 0.3260
28 net_123:21 net_123:22 0.3466
29 net_123:22 net_123:23 0.4948
30 net_123:23 inst_26:A2 0.4038
31 net_123:9 net_123:24 0.4619
32 net_123:24 inst_61:A2 0.1065
33 net_123:10 net_123:25 0.0281
34 net_123:25 net_123:26 0.1011
35 net_123:26 net_123:27 0.2539
36 net_123:27 inst_74:S 0.0765
37 net_123:19 net_123:28 0.4596
38 net_123:28 net_123:29 0.3295
39 net_123:29 inst_59:A2 0.4724
40 net_123:28 net_123:30 0.0714
41 net_123:30 inst_62:A1 0.2110
42 net_123:17 net_123:31 0.0374
43 net_123:31 inst_57:A2 0.2489
44 net_123:18 net_123:32 0.3416
45 net_123:32 inst_56:A2 0.4099
46 net_123:11 net_123:33 0.1516
47 net_123:33 inst_72:S 0.2746
*END

*D_NET net_83 1.4648
*CONN
*I inst_72:Z O
*I inst_130:D I
*CAP
1 inst_72:Z 0.1417
2 net_83:1 0.2016
3 net_83:2 0.0068
4 net_83:3 0.2001
5 net_83:4 0.4220
6 inst_130:D 0.4926
*RES
2 inst_72:Z net_83:1 0.0580
3 net_83:1 net_83:2 0.3810
4 net_83:2 net_83:3 0.2195
5 net_83:3 net_83:4 0.2042
6 net_83:4 inst_130:D 0.2030
*END

*D_NET B3 1.1297
*CONN
*P B3 I
*I inst_2:A1 I
*CAP
1 B3 0.4413
2 B3:1 0.4042
3 B3:2 0.0451
4 inst_2:A1 0.2391
*RES
2 B3 B3:1 0.0321
3 B3:1 B3:2 0.4146
4 B3:2 inst_2:A1 0.0857
*END

*D_NET net_115 1.3928
*CONN
*I inst_64:ZN O
*I inst_22:A1 I
*CAP
1 inst_64:ZN 0.2245
2 net_115:1 0.0551
3 net_115:2 0.1877
4 net_115:3 0.0973
5 net_115:4 0.4235
6 net_115:5 0.1903
7 inst_22:A1 0.2143
*RES
2 inst_64:ZN net_115:1 0.0701
3 net_115:1 net_115:2 0.2421
4 net_115:2 net_115:3 0.4634
5 net_115:3 net_115:4 0.2497
6 net_115:4 net_115:5 0.2766
7 net_115:5 inst_22:A1 0.3086
*END

*D_NET net_77 1.1823
*CONN
*I inst_0:ZN O
*I inst_15:A2 I
*CAP
1 inst_0:ZN 0.4838
2 net_77:1 0.3539
3 inst_15:A2 0.3446
*RES
2 inst_0:ZN net_77:1 0.0192
3 net_77:1 inst_15:A2 0.1341
*END

*D_NET net_20 6.2738
*CONN
*I inst_138:QN O
*I inst_59:A1 I
*P P6 O
*I inst_20:A2 I
*I inst_35:A2 I
*I inst_33:A2 I
*CAP
1 inst_138:QN 0.3681
2 net_20:1 0.1561
3 net_20:2 0.1347
4 net_20:3 0.0224
5 net_20:4 0.3933
6 net_20:5 0.2244
7 inst_33:A2 0.4154
8 net_20:6 0.4589
9 net_20:7 0.0098
10 net_20:8 0.3264
11 net_20:9 0.2846
12 net_20:10 0.4721
13 P6 0.1185
14 net_20:11 0.3155
15 net_20:12 0.4909
16 inst_20:A2 0.2285
17 net_20:13 0.2112
18 net_20:14 0.3238
19 inst_35:A2 0.1536
20 net_20:15 0.0018
21 net_20:16 0.2665
22 net_20:17 0.4580
23 inst_59:A1 0.4392
*RES
2 inst_138:QN net_20:1 0.1374
3 net_20:1 net_20:2 0.1713
4 net_20:2 net_20:3 0.2153
5 net_20:3 net_20:4 0.3119
6 net_20:4 net_20:5 0.4918
7 net_20:5 inst_33:A2 0.3583
8 net_20:3 net_20:6 0.4585
9 net_20:6 net_20:7 0.3703
10 net_20:7 net_20:8 0.0365
11 net_20:8 net_20:9 0.4409
12 net_20:9 net_20:10 0.4335
13 net_20:10 P6 0.3158
14 net_20:4 net_20:11 0.2293
15 net_20:11 net_20:12 0.4514
16 net_20:12 inst_20:A2 0.1489
17 net_20:9 net_20:13 0.2744
18 net_20:13 net_20:14 0.3973
19 net_20:14 inst_35:A2 0.0682
20 net_20:3 net_20:15 0.4660
21 net_20:15 net_20:16 0.3296
22 net_20:16 net_20:17 0.2711
23 net_20:17 inst_59:A1 0.1177
*END

*D_NET net_31 1.8034
*CONN
*I inst_43:ZN O
*I inst_50:A2 I
*CAP
1 inst_43:ZN 0.0719
2 net_31:1 0.3837
3 net_31:2 0.4308
4 net_31:3 0.4593
5 inst_50:A2 0.4578
*RES
2 inst_43:ZN net_31:1 0.1666
3 net_31:1 net_31:2 0.4235
4 net_31:2 net_31:3 0.2000
5 net_31:3 inst_50:A2 0.4330
*END

*D_NET net_95 1.0233
*CONN
*I inst_22:ZN O
*I inst_24:A3 I
*CAP
1 inst_22:ZN 0.3945
2 net_95:1 0.0632
3 net_95:2 0.3389
4 inst_24:A3 0.2267
*RES
2 inst_22:ZN net_95:1 0.0022
3 net_95:1 net_95:2 0.3986
4 net_95:2 inst_24:A3 0.0342
*END

*D_NET net_78 2.0551
*CONN
*I inst_12:ZN O
*I inst_8:A1 I
*I inst_1:A I
*CAP
1 inst_12:ZN 0.1342
2 net_78:1 0.4466
3 net_78:2 0.0789
4 net_78:3 0.1418
5 inst_8:A1 0.2162
6 net_78:4 0.3632
7 net_78:5 0.2277
8 net_78:6 0.1399
9 inst_1:A 0.3067
*RES
2 inst_12:ZN net_78:1 0.3480
3 net_78:1 net_78:2 0.3423
4 net_78:2 net_78:3 0.3091
5 net_78:3 inst_8:A1 0.3077
6 net_78:3 net_78:4 0.2194
7 net_78:4 net_78:5 0.0694
8 net_78:5 net_78:6 0.1731
9 net_78:6 inst_1:A 0.0340
*END

*D_NET A1 0.7505
*CONN
*P A1 I
*I inst_70:A I
*CAP
1 A1 0.0233
2 A1:1 0.4158
3 A1:2 0.0326
4 inst_70:A 0.2788
*RES
2 A1 A1:1 0.2469
3 A1:1 A1:2 0.0975
4 A1:2 inst_70:A 0.1398
*END

*D_NET net_41 0.7875
*CONN
*I inst_3:ZN O
*I inst_53:A1 I
*CAP
1 inst_3:ZN 0.2235
2 net_41:1 0.0538
3 net_41:2 0.1085
4 net_41:3 0.3839
5 inst_53:A1 0.0178
*RES
2 inst_3:ZN net_41:1 0.1655
3 net_41:1 net_41:2 0.3230
4 net_41:2 net_41:3 0.3040
5 net_41:3 inst_53:A1 0.3068
*END

*D_NET net_57 0.7712
*CONN
*I inst_52:ZN O
*I inst_62:A2 I
*CAP
1 inst_52:ZN 0.0490
2 net_57:1 0.4082
3 net_57:2 0.0586
4 inst_62:A2 0.2553
*RES
2 inst_52:ZN net_57:1 0.4766
3 net_57:1 net_57:2 0.4662
4 net_57:2 inst_62:A2 0.1239
*END

*D_NET net_27 5.3112
*CONN
*I inst_131:QN O
*I inst_1:B I
*I inst_42:A1 I
*I inst_17:A1 I
*I inst_18:A1 I
*CAP
1 inst_131:QN 0.4065
2 net_27:1 0.2328
3 net_27:2 0.0616
4 net_27:3 0.3670
5 net_27:4 0.3852
6 inst_17:A1 0.1467
7 net_27:5 0.0491
8 net_27:6 0.0298
9 net_27:7 0.3266
10 inst_42:A1 0.3430
11 net_27:8 0.2980
12 net_27:9 0.1661
13 net_27:10 0.4120
14 net_27:11 0.1627
15 net_27:12 0.0181
16 inst_1:B 0.3748
17 net_27:13 0.4707
18 net_27:14 0.4356
19 net_27:15 0.4554
20 inst_18:A1 0.1695
*RES
2 inst_131:QN net_27:1 0.2409
3 net_27:1 net_27:2 0.4071
4 net_27:2 net_27:3 0.2078
5 net_27:3 net_27:4 0.1018
6 net_27:4 inst_17:A1 0.2212
7 net_27:2 net_27:5 0.0062
8 net_27:5 net_27:6 0.2799
9 net_27:6 net_27:7 0.1542
10 net_27:7 inst_42:A1 0.1497
11 net_27:4 net_27:8 0.3179
12 net_27:8 net_27:9 0.1204
13 net_27:9 net_27:10 0.0927
14 net_27:10 net_27:11 0.1679
15 net_27:11 net_27:12 0.0593
16 net_27:12 inst_1:B 0.3745
17 net_27:2 net_27:13 0.1359
18 net_27:13 net_27:14 0.3553
19 net_27:14 net_27:15 0.1500
20 net_27:15 inst_18:A1 0.4264
*END

*D_NET A2 1.0910
*CONN
*P A2 I
*I inst_69:A I
*CAP
1 A2 0.2331
2 A2:1 0.4224
3 A2:2 0.1724
4 A2:3 0.0056
5 A2:4 0.0020
6 A2:5 0.0117
7 inst_69:A 0.2437
*RES
2 A2 A2:1 0.2268
3 A2:1 A2:2 0.2690
4 A2:2 A2:3 0.0296
5 A2:3 A2:4 0.2418
6 A2:4 A2:5 0.1876
7 A2:5 inst_69:A 0.0595
*END

*D_NET net_87 1.4987
*CONN
*I inst_74:Z O
*I inst_134:D I
*CAP
1 inst_74:Z 0.4579
2 net_87:1 0.2535
3 net_87:2 0.2194
4 net_87:3 0.1135
5 inst_134:D 0.4544
*RES
2 inst_74:Z net_87:1 0.4819
3 net_87:1 net_87:2 0.3078
4 net_87:2 net_87:3 0.3570
5 net_87:3 inst_134:D 0.3670
*END

*D_NET net_71 1.8412
*CONN
*I inst_19:ZN O
*I inst_21:A1 I
*CAP
1 inst_19:ZN 0.0125
2 net_71:1 0.2037
3 net_71:2 0.1594
4 net_71:3 0.3957
5 net_71:4 0.3077
6 net_71:5 0.4522
7 inst_21:A1 0.3100
*RES
2 inst_19:ZN net_71:1 0.1824
3 net_71:1 net_71:2 0.4992
4 net_71:2 net_71:3 0.3686
5 net_71:3 net_71:4 0.1667
6 net_71:4 net_71:5 0.4317
7 net_71:5 inst_21:A1 0.1120
*END

*D_NET net_35 1.3928
*CONN
*I inst_5:ZN O
*I inst_52:A1 I
*CAP
1 inst_5:ZN 0.4142
2 net_35:1 0.2330
3 net_35:2 0.4566
4 inst_52:A1 0.2890
*RES
2 inst_5:ZN net_35:1 0.4585
3 net_35:1 net_35:2 0.4359
4 net_35:2 inst_52:A1 0.0471
*END

*D_NET net_84 0.3107
*CONN
*I inst_73:Z O
*I inst_132:D I
*CAP
1 inst_73:Z 0.1294
2 net_84:1 0.0997
3 inst_132:D 0.0816
*RES
2 inst_73:Z net_84:1 0.0662