*SPEF "IEEE 1481-1998"
*DESIGN "changes"
*DATE "Tue Dec 02 20:32:19 2014"
*VENDOR "TAU 2015 Contest"
*PROGRAM "Benchmark Parasitic Generator"
*VERSION "0.0"
*DESIGN_FLOW "NETLIST_TYPE_VERILOG"
*DIVIDER /
*DELIMITER :
*BUS_DELIMITER [ ]
*T_UNIT 1 PS
*C_UNIT 1 FF
*R_UNIT 1 KOHM
*L_UNIT 1 UH

*D_NET net_47 1.7439
*CONN
*I TAUGATE_160:Z O
*I inst_34:A1 I
*CAP
1 TAUGATE_160:Z 0.2611
2 net_47:1 0.4098
3 net_47:2 0.5009
4 net_47:3 0.2843
5 inst_34:A1 0.2878
*RES
2 TAUGATE_160:Z net_47:1 0.1659
3 net_47:1 net_47:2 0.2742
4 net_47:2 net_47:3 0.3494
5 net_47:3 inst_34:A1 0.1485
*END

*D_NET TAUNET_114 1.3760
*CONN
*I inst_112:ZN O
*I TAUGATE_114:A I
*CAP
1 inst_112:ZN 0.2110
2 TAUNET_114:1 0.3070
3 TAUNET_114:2 0.3583
4 TAUNET_114:3 0.1395
5 TAUNET_114:4 0.0646
6 TAUNET_114:5 0.0794
7 TAUGATE_114:A 0.2161
*RES
2 inst_112:ZN TAUNET_114:1 0.1614
3 TAUNET_114:1 TAUNET_114:2 0.3312
4 TAUNET_114:2 TAUNET_114:3 0.3755
5 TAUNET_114:3 TAUNET_114:4 0.4644
6 TAUNET_114:4 TAUNET_114:5 0.4559
7 TAUNET_114:5 TAUGATE_114:A 0.4050
*END

*D_NET net_54 4.1543
*CONN
*I TAUGATE_194:Z O
*I inst_57:A1 I
*I inst_50:A1 I
*I inst_111:A I
*CAP
1 TAUGATE_194:Z 0.1670
2 net_54:1 0.2440
3 net_54:2 0.0332
4 inst_57:A1 0.0406
5 net_54:3 0.3706
6 net_54:4 0.0740
7 net_54:5 0.4871
8 inst_50:A1 0.4951
9 net_54:6 0.3356
10 net_54:7 0.3995
11 net_54:8 0.3845
12 net_54:9 0.4708
13 net_54:10 0.3056
14 inst_111:A 0.3464
*RES
2 TAUGATE_194:Z net_54:1 0.2732
3 net_54:1 net_54:2 0.0073
4 net_54:2 inst_57:A1 0.1308
5 net_54:1 net_54:3 0.4125
6 net_54:3 net_54:4 0.0565
7 net_54:4 net_54:5 0.1285
8 net_54:5 inst_50:A1 0.0292
9 net_54:3 net_54:6 0.0305
10 net_54:6 net_54:7 0.2383
11 net_54:7 net_54:8 0.4020
12 net_54:8 net_54:9 0.2529
13 net_54:9 net_54:10 0.2665
14 net_54:10 inst_111:A 0.4354
*END

*D_NET net_105 1.2788
*CONN
*I TAUGATE_91:Z O
*I inst_38:A1 I
*CAP
1 TAUGATE_91:Z 0.0788
2 net_105:1 0.3833
3 net_105:2 0.3292
4 net_105:3 0.0716
5 net_105:4 0.2236
6 inst_38:A1 0.1922
*RES
2 TAUGATE_91:Z net_105:1 0.2805
3 net_105:1 net_105:2 0.1322
4 net_105:2 net_105:3 0.1905
5 net_105:3 net_105:4 0.4017
6 net_105:4 inst_38:A1 0.4680
*END

*D_NET P3 1.2308
*CONN
*I TAUGATE_66:Z O
*P P3 O
*CAP
1 TAUGATE_66:Z 0.2331
2 P3:1 0.3943
3 P3:2 0.2211
4 P3:3 0.1955
5 P3 0.1868
*RES
2 TAUGATE_66:Z P3:1 0.4889
3 P3:1 P3:2 0.0703
4 P3:2 P3:3 0.3298
5 P3:3 P3 0.4131
*END

*D_NET TAUNET_232 1.4221
*CONN
*I inst_75:ZN O
*I TAUGATE_232:A I
*CAP
1 inst_75:ZN 0.2621
2 TAUNET_232:1 0.1808
3 TAUNET_232:2 0.0717
4 TAUNET_232:3 0.3990
5 TAUNET_232:4 0.4035
6 TAUNET_232:5 0.0219
7 TAUGATE_232:A 0.0830
*RES
2 inst_75:ZN TAUNET_232:1 0.4539
3 TAUNET_232:1 TAUNET_232:2 0.1250
4 TAUNET_232:2 TAUNET_232:3 0.3196
5 TAUNET_232:3 TAUNET_232:4 0.4976
6 TAUNET_232:4 TAUNET_232:5 0.3591
7 TAUNET_232:5 TAUGATE_232:A 0.2780
*END

*D_NET net_129 3.7343
*CONN
*I TAUGATE_103:Z O
*I inst_14:A1 I
*I inst_36:A2 I
*CAP
1 TAUGATE_103:Z 0.1593
2 net_129:1 0.3498
3 net_129:2 0.4055
4 net_129:3 0.4519
5 net_129:4 0.4658
6 net_129:5 0.3690
7 inst_14:A1 0.4019
8 net_129:6 0.0376
9 net_129:7 0.0972
10 net_129:8 0.3594
11 net_129:9 0.0525
12 net_129:10 0.3248
13 inst_36:A2 0.2597
*RES
2 TAUGATE_103:Z net_129:1 0.0632
3 net_129:1 net_129:2 0.2503
4 net_129:2 net_129:3 0.4700
5 net_129:3 net_129:4 0.3789
6 net_129:4 net_129:5 0.3545
7 net_129:5 inst_14:A1 0.1033
8 net_129:2 net_129:6 0.1267
9 net_129:6 net_129:7 0.3840
10 net_129:7 net_129:8 0.2434
11 net_129:8 net_129:9 0.3726
12 net_129:9 net_129:10 0.2980
13 net_129:10 inst_36:A2 0.2454
*END

*D_NET TAUNET_77 1.0674
*CONN
*P A0 I
*I TAUGATE_77:A I
*CAP
1 A0 0.1921
2 TAUNET_77:1 0.4443
3 TAUNET_77:2 0.1288
4 TAUGATE_77:A 0.3022
*RES
2 A0 TAUNET_77:1 0.1405
3 TAUNET_77:1 TAUNET_77:2 0.0668
4 TAUNET_77:2 TAUGATE_77:A 0.3699
*END

*D_NET net_98 1.5989
*CONN
*I TAUGATE_223:Z O
*I inst_25:A3 I
*CAP
1 TAUGATE_223:Z 0.4004
2 net_98:1 0.1341
3 net_98:2 0.3915
4 net_98:3 0.0282
5 net_98:4 0.3089
6 net_98:5 0.0253
7 inst_25:A3 0.3105
*RES
2 TAUGATE_223:Z net_98:1 0.1881
3 net_98:1 net_98:2 0.2034
4 net_98:2 net_98:3 0.1592
5 net_98:3 net_98:4 0.3147
6 net_98:4 net_98:5 0.2761
7 net_98:5 inst_25:A3 0.3643
*END

*D_NET net_119 1.2795
*CONN
*I TAUGATE_131:Z O
*I inst_36:A1 I
*CAP
1 TAUGATE_131:Z 0.0666
2 net_119:1 0.3580
3 net_119:2 0.3774
4 net_119:3 0.2731
5 net_119:4 0.1525
6 inst_36:A1 0.0518
*RES
2 TAUGATE_131:Z net_119:1 0.2548
3 net_119:1 net_119:2 0.2154
4 net_119:2 net_119:3 0.4921
5 net_119:3 net_119:4 0.1648
6 net_119:4 inst_36:A1 0.1855
*END

*D_NET TAUNET_124 1.0916
*CONN
*I TAUGATE_11:Z O
*I TAUGATE_124:A I
*CAP
1 TAUGATE_11:Z 0.3530
2 TAUNET_124:1 0.2239
3 TAUNET_124:2 0.0917
4 TAUGATE_124:A 0.4230
*RES
2 TAUGATE_11:Z TAUNET_124:1 0.1494
3 TAUNET_124:1 TAUNET_124:2 0.3290
4 TAUNET_124:2 TAUGATE_124:A 0.1620
*END

*D_NET net_12 1.1549
*CONN
*I TAUGATE_120:Z O
*I inst_84:A I
*CAP
1 TAUGATE_120:Z 0.2883
2 net_12:1 0.4381
3 net_12:2 0.3484
4 inst_84:A 0.0801
*RES
2 TAUGATE_120:Z net_12:1 0.1392
3 net_12:1 net_12:2 0.1891
4 net_12:2 inst_84:A 0.0464
*END

*D_NET TAUNET_217 1.0649
*CONN
*I TAUGATE_57:Z O
*I TAUGATE_217:A I
*CAP
1 TAUGATE_57:Z 0.0279
2 TAUNET_217:1 0.0649
3 TAUNET_217:2 0.0510
4 TAUNET_217:3 0.1600
5 TAUNET_217:4 0.1748
6 TAUNET_217:5 0.4787
7 TAUGATE_217:A 0.1076
*RES
2 TAUGATE_57:Z TAUNET_217:1 0.4606
3 TAUNET_217:1 TAUNET_217:2 0.3388
4 TAUNET_217:2 TAUNET_217:3 0.4657
5 TAUNET_217:3 TAUNET_217:4 0.3595
6 TAUNET_217:4 TAUNET_217:5 0.2471
7 TAUNET_217:5 TAUGATE_217:A 0.0832
*END

*D_NET net_53 1.8158
*CONN
*I TAUGATE_201:Z O
*I inst_51:A2 I
*I inst_13:A2 I
*CAP
1 TAUGATE_201:Z 0.3736
2 net_53:1 0.3644
3 inst_51:A2 0.0829
4 net_53:2 0.1165
5 net_53:3 0.0986
6 net_53:4 0.2243
7 net_53:5 0.1286
8 inst_13:A2 0.4269
*RES
2 TAUGATE_201:Z net_53:1 0.1977
3 net_53:1 inst_51:A2 0.4694
4 net_53:1 net_53:2 0.2482
5 net_53:2 net_53:3 0.2195
6 net_53:3 net_53:4 0.1533
7 net_53:4 net_53:5 0.4091
8 net_53:5 inst_13:A2 0.2613
*END

*D_NET TAUNET_103 1.5043
*CONN
*I inst_32:ZN O
*I TAUGATE_103:A I
*CAP
1 inst_32:ZN 0.1869
2 TAUNET_103:1 0.3047
3 TAUNET_103:2 0.1200
4 TAUNET_103:3 0.4969
5 TAUNET_103:4 0.1210
6 TAUNET_103:5 0.1733
7 TAUGATE_103:A 0.1014
*RES
2 inst_32:ZN TAUNET_103:1 0.0283
3 TAUNET_103:1 TAUNET_103:2 0.2763
4 TAUNET_103:2 TAUNET_103:3 0.2945
5 TAUNET_103:3 TAUNET_103:4 0.3177
6 TAUNET_103:4 TAUNET_103:5 0.2101
7 TAUNET_103:5 TAUGATE_103:A 0.3390
*END

*D_NET net_93 1.1506
*CONN
*I TAUGATE_87:Z O
*I inst_23:A3 I
*CAP
1 TAUGATE_87:Z 0.3404
2 net_93:1 0.3617
3 net_93:2 0.0856
4 inst_23:A3 0.3629
*RES
2 TAUGATE_87:Z net_93:1 0.2821
3 net_93:1 net_93:2 0.3900
4 net_93:2 inst_23:A3 0.0557
*END

*D_NET TAUNET_177 1.5353
*CONN
*I inst_92:ZN O
*I TAUGATE_177:A I
*CAP
1 inst_92:ZN 0.2716
2 TAUNET_177:1 0.1079
3 TAUNET_177:2 0.3323
4 TAUNET_177:3 0.2907
5 TAUNET_177:4 0.0362
6 TAUGATE_177:A 0.4966
*RES
2 inst_92:ZN TAUNET_177:1 0.4101
3 TAUNET_177:1 TAUNET_177:2 0.2702
4 TAUNET_177:2 TAUNET_177:3 0.2135
5 TAUNET_177:3 TAUNET_177:4 0.0419
6 TAUNET_177:4 TAUGATE_177:A 0.2773
*END

*D_NET TAUNET_255 2.1160
*CONN
*P B3 I
*I TAUGATE_255:A I
*CAP
1 B3 0.0485
2 TAUNET_255:1 0.4262
3 TAUNET_255:2 0.2009
4 TAUNET_255:3 0.3114
5 TAUNET_255:4 0.3090
6 TAUNET_255:5 0.3972
7 TAUGATE_255:A 0.4228
*RES
2 B3 TAUNET_255:1 0.2443
3 TAUNET_255:1 TAUNET_255:2 0.2458
4 TAUNET_255:2 TAUNET_255:3 0.3734
5 TAUNET_255:3 TAUNET_255:4 0.1567
6 TAUNET_255:4 TAUNET_255:5 0.1247
7 TAUNET_255:5 TAUGATE_255:A 0.2439
*END

*D_NET TAUNET_31 1.4807
*CONN
*I TAUGATE_251:Z O
*I TAUGATE_31:A I
*CAP
1 TAUGATE_251:Z 0.4474
2 TAUNET_31:1 0.0472
3 TAUNET_31:2 0.4436
4 TAUNET_31:3 0.1981
5 TAUNET_31:4 0.3275
6 TAUGATE_31:A 0.0169
*RES
2 TAUGATE_251:Z TAUNET_31:1 0.4026
3 TAUNET_31:1 TAUNET_31:2 0.4684
4 TAUNET_31:2 TAUNET_31:3 0.2490
5 TAUNET_31:3 TAUNET_31:4 0.0579
6 TAUNET_31:4 TAUGATE_31:A 0.0423
*END

*D_NET TAUNET_243 1.8957
*CONN
*I inst_77:ZN O
*I TAUGATE_243:A I
*CAP
1 inst_77:ZN 0.4278
2 TAUNET_243:1 0.4796
3 TAUNET_243:2 0.3740
4 TAUNET_243:3 0.1554
5 TAUNET_243:4 0.0209
6 TAUGATE_243:A 0.4380
*RES
2 inst_77:ZN TAUNET_243:1 0.4130
3 TAUNET_243:1 TAUNET_243:2 0.4990
4 TAUNET_243:2 TAUNET_243:3 0.2134
5 TAUNET_243:3 TAUNET_243:4 0.1115
6 TAUNET_243:4 TAUGATE_243:A 0.4947
*END

*D_NET TAUNET_71 2.2597
*CONN
*I TAUGATE_7:Z O
*I TAUGATE_71:A I
*CAP
1 TAUGATE_7:Z 0.2854
2 TAUNET_71:1 0.2438
3 TAUNET_71:2 0.2969
4 TAUNET_71:3 0.3091
5 TAUNET_71:4 0.5006
6 TAUNET_71:5 0.2264
7 TAUGATE_71:A 0.3973
*RES
2 TAUGATE_7:Z TAUNET_71:1 0.2044
3 TAUNET_71:1 TAUNET_71:2 0.1531
4 TAUNET_71:2 TAUNET_71:3 0.3886
5 TAUNET_71:3 TAUNET_71:4 0.2618
6 TAUNET_71:4 TAUNET_71:5 0.2468
7 TAUNET_71:5 TAUGATE_71:A 0.4002
*END

*D_NET TAUNET_91 0.7125
*CONN
*I inst_37:ZN O
*I TAUGATE_91:A I
*CAP
1 inst_37:ZN 0.1857
2 TAUNET_91:1 0.0882
3 TAUGATE_91:A 0.4386
*RES
2 inst_37:ZN TAUNET_91:1 0.2715
3 TAUNET_91:1 TAUGATE_91:A 0.0199
*END

*D_NET TAUNET_57 0.5520
*CONN
*I TAUGATE_84:Z O
*I TAUGATE_57:A I
*CAP
1 TAUGATE_84:Z 0.1459
2 TAUNET_57:1 0.1026
3 TAUNET_57:2 0.1939
4 TAUGATE_57:A 0.1095
*RES
2 TAUGATE_84:Z TAUNET_57:1 0.0212
3 TAUNET_57:1 TAUNET_57:2 0.1417
4 TAUNET_57:2 TAUGATE_57:A 0.2190
*END

*D_NET TAUNET_208 1.5644
*CONN
*I TAUGATE_58:Z O
*I TAUGATE_208:A I
*CAP
1 TAUGATE_58:Z 0.1138
2 TAUNET_208:1 0.3663
3 TAUNET_208:2 0.2540
4 TAUNET_208:3 0.0526
5 TAUNET_208:4 0.2388
6 TAUNET_208:5 0.1787
7 TAUGATE_208:A 0.3603
*RES
2 TAUGATE_58:Z TAUNET_208:1 0.0603
3 TAUNET_208:1 TAUNET_208:2 0.0863
4 TAUNET_208:2 TAUNET_208:3 0.3102
5 TAUNET_208:3 TAUNET_208:4 0.1239
6 TAUNET_208:4 TAUNET_208:5 0.2473
7 TAUNET_208:5 TAUGATE_208:A 0.0055
*END

*D_NET net_127 1.2459
*CONN
*I TAUGATE_236:Z O
*I inst_22:A2 I
*CAP
1 TAUGATE_236:Z 0.2412
2 net_127:1 0.4441
3 net_127:2 0.4218
4 net_127:3 0.0848
5 net_127:4 0.0266
6 inst_22:A2 0.0274
*RES
2 TAUGATE_236:Z net_127:1 0.4218
3 net_127:1 net_127:2 0.2061
4 net_127:2 net_127:3 0.2110
5 net_127:3 net_127:4 0.4583
6 net_127:4 inst_22:A2 0.3985
*END

*D_NET TAUNET_9 1.9898
*CONN
*I TAUGATE_205:Z O
*I TAUGATE_9:A I
*CAP
1 TAUGATE_205:Z 0.0725
2 TAUNET_9:1 0.3124
3 TAUNET_9:2 0.3685
4 TAUNET_9:3 0.4317
5 TAUNET_9:4 0.1801
6 TAUNET_9:5 0.2826
7 TAUGATE_9:A 0.3420
*RES
2 TAUGATE_205:Z TAUNET_9:1 0.0965
3 TAUNET_9:1 TAUNET_9:2 0.2555
4 TAUNET_9:2 TAUNET_9:3 0.1304
5 TAUNET_9:3 TAUNET_9:4 0.3675
6 TAUNET_9:4 TAUNET_9:5 0.4634
7 TAUNET_9:5 TAUGATE_9:A 0.2869
*END

*D_NET TAUNET_240 0.5511
*CONN
*I inst_82:ZN O
*I TAUGATE_240:A I
*CAP
1 inst_82:ZN 0.1182
2 TAUNET_240:1 0.0608
3 TAUGATE_240:A 0.3721
*RES
2 inst_82:ZN TAUNET_240:1 0.4648
3 TAUNET_240:1 TAUGATE_240:A 0.2376
*END

*D_NET TAUNET_128 0.8353
*CONN
*I inst_63:ZN O
*I TAUGATE_128:A I
*CAP
1 inst_63:ZN 0.3081
2 TAUNET_128:1 0.0264
3 TAUNET_128:2 0.2502
4 TAUGATE_128:A 0.2506
*RES
2 inst_63:ZN TAUNET_128:1 0.4486
3 TAUNET_128:1 TAUNET_128:2 0.0641
4 TAUNET_128:2 TAUGATE_128:A 0.0138
*END

*D_NET TAUNET_161 0.7959
*CONN
*I inst_90:ZN O
*I TAUGATE_161:A I
*CAP
1 inst_90:ZN 0.0204
2 TAUNET_161:1 0.1001
3 TAUNET_161:2 0.2747
4 TAUNET_161:3 0.1704
5 TAUGATE_161:A 0.2303
*RES
2 inst_90:ZN TAUNET_161:1 0.0121
3 TAUNET_161:1 TAUNET_161:2 0.0620
4 TAUNET_161:2 TAUNET_161:3 0.0267
5 TAUNET_161:3 TAUGATE_161:A 0.1278
*END

*D_NET net_76 1.5058
*CONN
*I TAUGATE_96:Z O
*I inst_63:A1 I
*CAP
1 TAUGATE_96:Z 0.3621
2 net_76:1 0.3490
3 net_76:2 0.4751
4 inst_63:A1 0.3195
*RES
2 TAUGATE_96:Z net_76:1 0.4748
3 net_76:1 net_76:2 0.2505
4 net_76:2 inst_63:A1 0.2036
*END

*D_NET TAUNET_249 1.2849
*CONN
*I inst_60:ZN O
*I TAUGATE_249:A I
*CAP
1 inst_60:ZN 0.0185
2 TAUNET_249:1 0.2437
3 TAUNET_249:2 0.3641
4 TAUNET_249:3 0.1411
5 TAUNET_249:4 0.2452
6 TAUGATE_249:A 0.2723
*RES
2 inst_60:ZN TAUNET_249:1 0.2079
3 TAUNET_249:1 TAUNET_249:2 0.2449
4 TAUNET_249:2 TAUNET_249:3 0.0406
5 TAUNET_249:3 TAUNET_249:4 0.0917
6 TAUNET_249:4 TAUGATE_249:A 0.0078
*END

*D_NET net_101 0.3723
*CONN
*I TAUGATE_171:Z O
*I inst_137:D I
*CAP
1 TAUGATE_171:Z 0.0264
2 net_101:1 0.1906
3 inst_137:D 0.1553
*RES
2 TAUGATE_171:Z net_101:1 0.0937
3 net_101:1 inst_137:D 0.2944
*END

*D_NET net_111 0.9828
*CONN
*I TAUGATE_185:Z O
*I inst_39:A2 I
*CAP
1 TAUGATE_185:Z 0.0209
2 net_111:1 0.1067
3 net_111:2 0.4881
4 inst_39:A2 0.3672
*RES
2 TAUGATE_185:Z net_111:1 0.4629
3 net_111:1 net_111:2 0.1157
4 net_111:2 inst_39:A2 0.1901
*END

*D_NET TAUNET_192 1.4760
*CONN
*I TAUGATE_52:Z O
*I TAUGATE_192:A I
*CAP
1 TAUGATE_52:Z 0.5008
2 TAUNET_192:1 0.3428
3 TAUNET_192:2 0.2325
4 TAUNET_192:3 0.2733
5 TAUGATE_192:A 0.1266
*RES
2 TAUGATE_52:Z TAUNET_192:1 0.3814
3 TAUNET_192:1 TAUNET_192:2 0.1363
4 TAUNET_192:2 TAUNET_192:3 0.3277
5 TAUNET_192:3 TAUGATE_192:A 0.3144
*END

*D_NET TAUNET_151 1.3785
*CONN
*I inst_128:QN O
*I TAUGATE_151:A I
*CAP
1 inst_128:QN 0.3676
2 TAUNET_151:1 0.4423
3 TAUNET_151:2 0.1159
4 TAUGATE_151:A 0.4527
*RES
2 inst_128:QN TAUNET_151:1 0.1465
3 TAUNET_151:1 TAUNET_151:2 0.1463
4 TAUNET_151:2 TAUGATE_151:A 0.4621
*END

*D_NET net_90 0.8463
*CONN
*I TAUGATE_89:Z O
*I inst_64:A1 I
*CAP
1 TAUGATE_89:Z 0.0227
2 net_90:1 0.4114
3 net_90:2 0.0715
4 net_90:3 0.1546
5 inst_64:A1 0.1861
*RES
2 TAUGATE_89:Z net_90:1 0.4367
3 net_90:1 net_90:2 0.3452
4 net_90:2 net_90:3 0.0313
5 net_90:3 inst_64:A1 0.1217
*END

*D_NET TAUNET_141 0.7321
*CONN
*I inst_42:ZN O
*I TAUGATE_141:A I
*CAP
1 inst_42:ZN 0.1222
2 TAUNET_141:1 0.1692
3 TAUGATE_141:A 0.4407
*RES
2 inst_42:ZN TAUNET_141:1 0.4978
3 TAUNET_141:1 TAUGATE_141:A 0.2563
*END

*D_NET net_100 5.0315
*CONN
*I TAUGATE_208:Z O
*I inst_24:A2 I
*I inst_27:A2 I
*I inst_25:A2 I
*I inst_23:A2 I
*CAP
1 TAUGATE_208:Z 0.2603
2 net_100:1 0.3072
3 net_100:2 0.2768
4 net_100:3 0.1679
5 inst_25:A2 0.2053
6 net_100:4 0.3806
7 net_100:5 0.4946
8 net_100:6 0.4608
9 net_100:7 0.4692
10 net_100:8 0.4766
11 inst_27:A2 0.0589
12 net_100:9 0.4748
13 net_100:10 0.0806
14 inst_24:A2 0.0407
15 net_100:11 0.2640
16 net_100:12 0.1831
17 net_100:13 0.4110
18 inst_23:A2 0.0191
*RES
2 TAUGATE_208:Z net_100:1 0.2140
3 net_100:1 net_100:2 0.3306
4 net_100:2 net_100:3 0.1569
5 net_100:3 inst_25:A2 0.2580
6 net_100:2 net_100:4 0.0962
7 net_100:4 net_100:5 0.2415
8 net_100:5 net_100:6 0.1750
9 net_100:6 net_100:7 0.4103
10 net_100:7 net_100:8 0.0845
11 net_100:8 inst_27:A2 0.1888
12 net_100:3 net_100:9 0.2069
13 net_100:9 net_100:10 0.0491
14 net_100:10 inst_24:A2 0.4137
15 net_100:7 net_100:11 0.3538
16 net_100:11 net_100:12 0.4300
17 net_100:12 net_100:13 0.3629
18 net_100:13 inst_23:A2 0.0787
*END

*D_NET net_85 2.0675
*CONN
*I TAUGATE_107:Z O
*I inst_129:D I
*CAP
1 TAUGATE_107:Z 0.2971
2 net_85:1 0.5010
3 net_85:2 0.3538
4 net_85:3 0.4649
5 net_85:4 0.0482
6 net_85:5 0.1062
7 inst_129:D 0.2963
*RES
2 TAUGATE_107:Z net_85:1 0.4911
3 net_85:1 net_85:2 0.2002
4 net_85:2 net_85:3 0.2573
5 net_85:3 net_85:4 0.3761
6 net_85:4 net_85:5 0.0616
7 net_85:5 inst_129:D 0.4298
*END

*D_NET net_124 0.5116
*CONN
*I TAUGATE_243:Z O
*I inst_74:S I
*CAP
1 TAUGATE_243:Z 0.2634
2 net_124:1 0.0745
3 inst_74:S 0.1738
*RES
2 TAUGATE_243:Z net_124:1 0.4336
3 net_124:1 inst_74:S 0.4556
*END

*D_NET TAUNET_49 1.0764
*CONN
*I TAUGATE_147:Z O
*I TAUGATE_49:A I
*CAP
1 TAUGATE_147:Z 0.0036
2 TAUNET_49:1 0.2737
3 TAUNET_49:2 0.3095
4 TAUGATE_49:A 0.4895
*RES
2 TAUGATE_147:Z TAUNET_49:1 0.4033
3 TAUNET_49:1 TAUNET_49:2 0.2734
4 TAUNET_49:2 TAUGATE_49:A 0.3461
*END

*D_NET TAUNET_201 1.3424
*CONN
*I inst_44:ZN O
*I TAUGATE_201:A I
*CAP
1 inst_44:ZN 0.0418
2 TAUNET_201:1 0.3815
3 TAUNET_201:2 0.1458
4 TAUNET_201:3 0.4915
5 TAUNET_201:4 0.0683
6 TAUGATE_201:A 0.2135
*RES
2 inst_44:ZN TAUNET_201:1 0.4484
3 TAUNET_201:1 TAUNET_201:2 0.1379
4 TAUNET_201:2 TAUNET_201:3 0.1139
5 TAUNET_201:3 TAUNET_201:4 0.0489
6 TAUNET_201:4 TAUGATE_201:A 0.0861
*END

*D_NET TAUNET_87 1.2401
*CONN
*I inst_21:ZN O
*I TAUGATE_87:A I
*CAP
1 inst_21:ZN 0.4806
2 TAUNET_87:1 0.1114
3 TAUNET_87:2 0.0198
4 TAUNET_87:3 0.2366
5 TAUNET_87:4 0.1100
6 TAUGATE_87:A 0.2818
*RES
2 inst_21:ZN TAUNET_87:1 0.3290
3 TAUNET_87:1 TAUNET_87:2 0.1592
4 TAUNET_87:2 TAUNET_87:3 0.4236
5 TAUNET_87:3 TAUNET_87:4 0.3328
6 TAUNET_87:4 TAUGATE_87:A 0.1906
*END

*D_NET TAUNET_231 1.5747
*CONN
*I inst_85:ZN O
*I TAUGATE_231:A I
*CAP
1 inst_85:ZN 0.4347
2 TAUNET_231:1 0.1394
3 TAUNET_231:2 0.0096
4 TAUNET_231:3 0.4963
5 TAUNET_231:4 0.2377
6 TAUGATE_231:A 0.2571
*RES
2 inst_85:ZN TAUNET_231:1 0.3610
3 TAUNET_231:1 TAUNET_231:2 0.0042
4 TAUNET_231:2 TAUNET_231:3 0.2690
5 TAUNET_231:3 TAUNET_231:4 0.3841
6 TAUNET_231:4 TAUGATE_231:A 0.3400
*END

*D_NET net_115 1.2277
*CONN
*I TAUGATE_202:Z O
*I inst_22:A1 I
*CAP
1 TAUGATE_202:Z 0.3112
2 net_115:1 0.4134
3 net_115:2 0.0741
4 inst_22:A1 0.4290
*RES
2 TAUGATE_202:Z net_115:1 0.4891
3 net_115:1 net_115:2 0.0621
4 net_115:2 inst_22:A1 0.2122
*END

*D_NET TAUNET_50 0.7629
*CONN
*I TAUGATE_209:Z O
*I TAUGATE_50:A I
*CAP
1 TAUGATE_209:Z 0.1253
2 TAUNET_50:1 0.2343
3 TAUNET_50:2 0.1106
4 TAUNET_50:3 0.0283
5 TAUGATE_50:A 0.2644
*RES
2 TAUGATE_209:Z TAUNET_50:1 0.3395
3 TAUNET_50:1 TAUNET_50:2 0.4160
4 TAUNET_50:2 TAUNET_50:3 0.1311
5 TAUNET_50:3 TAUGATE_50:A 0.1702
*END

*D_NET TAUNET_72 0.8144
*CONN
*I inst_119:ZN O
*I TAUGATE_72:A I
*CAP
1 inst_119:ZN 0.0383
2 TAUNET_72:1 0.2177
3 TAUNET_72:2 0.0520
4 TAUNET_72:3 0.1787
5 TAUGATE_72:A 0.3277
*RES
2 inst_119:ZN TAUNET_72:1 0.2308
3 TAUNET_72:1 TAUNET_72:2 0.1825
4 TAUNET_72:2 TAUNET_72:3 0.4154
5 TAUNET_72:3 TAUGATE_72:A 0.4205
*END

*D_NET net_4 0.9305
*CONN
*I TAUGATE_213:Z O
*I inst_85:A I
*CAP
1 TAUGATE_213:Z 0.3303
2 net_4:1 0.3450
3 inst_85:A 0.2552
*RES
2 TAUGATE_213:Z net_4:1 0.2397
3 net_4:1 inst_85:A 0.3943
*END

*D_NET net_17 2.0445
*CONN
*I TAUGATE_210:Z O
*I inst_35:A2 I
*I inst_94:A I
*CAP
1 TAUGATE_210:Z 0.3586
2 net_17:1 0.2132
3 net_17:2 0.3448
4 inst_35:A2 0.2539
5 net_17:3 0.3825
6 inst_94:A 0.4916
*RES
2 TAUGATE_210:Z net_17:1 0.0169
3 net_17:1 net_17:2 0.2910
4 net_17:2 inst_35:A2 0.3418
5 net_17:1 net_17:3 0.0258
6 net_17:3 inst_94:A 0.0722
*END

*D_NET TAUNET_134 0.1761
*CONN
*I inst_4:ZN O
*I TAUGATE_134:A I
*CAP
1 inst_4:ZN 0.0274
2 TAUNET_134:1 0.0758
3 TAUGATE_134:A 0.0730
*RES
2 inst_4:ZN TAUNET_134:1 0.2996
3 TAUNET_134:1 TAUGATE_134:A 0.1500
*END

*D_NET A1 1.1459
*CONN
*I TAUGATE_257:Z O
*I inst_70:A I
*CAP
1 TAUGATE_257:Z 0.0605
2 A1:1 0.4347
3 A1:2 0.2976
4 inst_70:A 0.3531
*RES
2 TAUGATE_257:Z A1:1 0.0316
3 A1:1 A1:2 0.1823
4 A1:2 inst_70:A 0.0755
*END

*D_NET TAUNET_267 1.1637
*CONN
*I inst_35:ZN O
*I TAUGATE_267:A I
*CAP
1 inst_35:ZN 0.3515
2 TAUNET_267:1 0.4269
3 TAUNET_267:2 0.0493
4 TAUNET_267:3 0.0341
5 TAUGATE_267:A 0.3020
*RES
2 inst_35:ZN TAUNET_267:1 0.3389
3 TAUNET_267:1 TAUNET_267:2 0.4000
4 TAUNET_267:2 TAUNET_267:3 0.0188
5 TAUNET_267:3 TAUGATE_267:A 0.4709
*END

*D_NET TAUNET_19 0.8262
*CONN
*I TAUGATE_158:Z O
*I TAUGATE_19:A I
*CAP
1 TAUGATE_158:Z 0.0122
2 TAUNET_19:1 0.0936
3 TAUNET_19:2 0.3051
4 TAUNET_19:3 0.1197
5 TAUGATE_19:A 0.2956
*RES
2 TAUGATE_158:Z TAUNET_19:1 0.2210
3 TAUNET_19:1 TAUNET_19:2 0.0970
4 TAUNET_19:2 TAUNET_19:3 0.2798
5 TAUNET_19:3 TAUGATE_19:A 0.3150
*END

*D_NET TAUNET_34 1.2664
*CONN
*I TAUGATE_151:Z O
*I TAUGATE_34:A I
*CAP
1 TAUGATE_151:Z 0.2108
2 TAUNET_34:1 0.0161
3 TAUNET_34:2 0.2047
4 TAUNET_34:3 0.3729
5 TAUNET_34:4 0.0610
6 TAUGATE_34:A 0.4010
*RES
2 TAUGATE_151:Z TAUNET_34:1 0.2910
3 TAUNET_34:1 TAUNET_34:2 0.3768
4 TAUNET_34:2 TAUNET_34:3 0.3083
5 TAUNET_34:3 TAUNET_34:4 0.1250
6 TAUNET_34:4 TAUGATE_34:A 0.3526
*END

*D_NET net_87 1.6292
*CONN
*I TAUGATE_252:Z O
*I inst_134:D I
*CAP
1 TAUGATE_252:Z 0.3144
2 net_87:1 0.0820
3 net_87:2 0.2174
4 net_87:3 0.3638
5 net_87:4 0.4097
6 inst_134:D 0.2418
*RES
2 TAUGATE_252:Z net_87:1 0.4080
3 net_87:1 net_87:2 0.3118
4 net_87:2 net_87:3 0.4981
5 net_87:3 net_87:4 0.3134
6 net_87:4 inst_134:D 0.4059
*END

*D_NET TAUNET_236 0.9494
*CONN
*I inst_105:ZN O
*I TAUGATE_236:A I
*CAP
1 inst_105:ZN 0.0910
2 TAUNET_236:1 0.3093
3 TAUNET_236:2 0.3342
4 TAUGATE_236:A 0.2150
*RES
2 inst_105:ZN TAUNET_236:1 0.0109
3 TAUNET_236:1 TAUNET_236:2 0.1830
4 TAUNET_236:2 TAUGATE_236:A 0.2298
*END

*D_NET TAUNET_264 0.1587
*CONN
*I inst_110:ZN O
*I TAUGATE_264:A I
*CAP
1 inst_110:ZN 0.0044
2 TAUNET_264:1 0.0476
3 TAUNET_264:2 0.0521
4 TAUGATE_264:A 0.0546
*RES
2 inst_110:ZN TAUNET_264:1 0.0043
3 TAUNET_264:1 TAUNET_264:2 0.2737
4 TAUNET_264:2 TAUGATE_264:A 0.4724
*END

*D_NET net_0 2.4167
*CONN
*I TAUGATE_192:Z O
*I inst_140:A2 I
*I inst_89:A I
*CAP
1 TAUGATE_192:Z 0.2426
2 net_0:1 0.2784
3 net_0:2 0.2008
4 inst_89:A 0.3776
5 net_0:3 0.2336
6 net_0:4 0.3863
7 net_0:5 0.2365
8 net_0:6 0.1037
9 inst_140:A2 0.3572
*RES
2 TAUGATE_192:Z net_0:1 0.2937
3 net_0:1 net_0:2 0.0093
4 net_0:2 inst_89:A 0.2822
5 net_0:2 net_0:3 0.2211
6 net_0:3 net_0:4 0.2185
7 net_0:4 net_0:5 0.2266
8 net_0:5 net_0:6 0.2538
9 net_0:6 inst_140:A2 0.1297
*END

*D_NET TAUNET_44 1.5261
*CONN
*I TAUGATE_113:Z O
*I TAUGATE_44:A I
*CAP
1 TAUGATE_113:Z 0.2417
2 TAUNET_44:1 0.4262
3 TAUNET_44:2 0.3737
4 TAUNET_44:3 0.3015
5 TAUGATE_44:A 0.1830
*RES
2 TAUGATE_113:Z TAUNET_44:1 0.3035
3 TAUNET_44:1 TAUNET_44:2 0.4053
4 TAUNET_44:2 TAUNET_44:3 0.0863
5 TAUNET_44:3 TAUGATE_44:A 0.2362
*END

*D_NET TAUNET_207 1.0858
*CONN
*I TAUGATE_42:Z O
*I TAUGATE_207:A I
*CAP
1 TAUGATE_42:Z 0.0277
2 TAUNET_207:1 0.2912
3 TAUNET_207:2 0.1111
4 TAUNET_207:3 0.3711
5 TAUNET_207:4 0.0512
6 TAUNET_207:5 0.1351
7 TAUGATE_207:A 0.0984
*RES
2 TAUGATE_42:Z TAUNET_207:1 0.0368
3 TAUNET_207:1 TAUNET_207:2 0.4376
4 TAUNET_207:2 TAUNET_207:3 0.1423
5 TAUNET_207:3 TAUNET_207:4 0.1283
6 TAUNET_207:4 TAUNET_207:5 0.1146
7 TAUNET_207:5 TAUGATE_207:A 0.3234
*END

*D_NET TAUNET_185 1.6441
*CONN
*I inst_121:ZN O
*I TAUGATE_185:A I
*CAP
1 inst_121:ZN 0.4832
2 TAUNET_185:1 0.3781
3 TAUNET_185:2 0.3766
4 TAUNET_185:3 0.0185
5 TAUGATE_185:A 0.3877
*RES
2 inst_121:ZN TAUNET_185:1 0.1588
3 TAUNET_185:1 TAUNET_185:2 0.3738
4 TAUNET_185:2 TAUNET_185:3 0.4556
5 TAUNET_185:3 TAUGATE_185:A 0.1835
*END

*D_NET net_35 1.1460
*CONN
*I TAUGATE_258:Z O
*I inst_52:A1 I
*CAP
1 TAUGATE_258:Z 0.2614
2 net_35:1 0.2164
3 net_35:2 0.4372
4 net_35:3 0.1158
5 inst_52:A1 0.1153
*RES
2 TAUGATE_258:Z net_35:1 0.3810
3 net_35:1 net_35:2 0.1100
4 net_35:2 net_35:3 0.1662
5 net_35:3 inst_52:A1 0.3178
*END

*D_NET net_16 2.4376
*CONN
*I TAUGATE_162:Z O
*I inst_93:A I
*I inst_17:A3 I
*CAP
1 TAUGATE_162:Z 0.2497
2 net_16:1 0.2343
3 net_16:2 0.0981
4 net_16:3 0.3461
5 net_16:4 0.2382
6 net_16:5 0.4109
7 inst_17:A3 0.0945
8 net_16:6 0.4527
9 inst_93:A 0.3131
*RES
2 TAUGATE_162:Z net_16:1 0.2326
3 net_16:1 net_16:2 0.0121
4 net_16:2 net_16:3 0.2674
5 net_16:3 net_16:4 0.2072
6 net_16:4 net_16:5 0.0414
7 net_16:5 inst_17:A3 0.2455
8 net_16:2 net_16:6 0.4392
9 net_16:6 inst_93:A 0.4048
*END

*D_NET TAUNET_56 1.7566
*CONN
*I TAUGATE_204:Z O
*I TAUGATE_56:A I
*CAP
1 TAUGATE_204:Z 0.3283
2 TAUNET_56:1 0.4199
3 TAUNET_56:2 0.3736
4 TAUNET_56:3 0.3306
5 TAUGATE_56:A 0.3042
*RES
2 TAUGATE_204:Z TAUNET_56:1 0.1317
3 TAUNET_56:1 TAUNET_56:2 0.1481
4 TAUNET_56:2 TAUNET_56:3 0.2485
5 TAUNET_56:3 TAUGATE_56:A 0.2201
*END

*D_NET TAUNET_102 0.7087
*CONN
*I inst_19:ZN O
*I TAUGATE_102:A I
*CAP
1 inst_19:ZN 0.3013
2 TAUNET_102:1 0.0262
3 TAUGATE_102:A 0.3812
*RES
2 inst_19:ZN TAUNET_102:1 0.0656
3 TAUNET_102:1 TAUGATE_102:A 0.1550
*END

*D_NET TAUNET_110 1.3180
*CONN
*I TAUGATE_1:Z O
*I TAUGATE_110:A I
*CAP
1 TAUGATE_1:Z 0.1418
2 TAUNET_110:1 0.3805
3 TAUNET_110:2 0.2523
4 TAUNET_110:3 0.0497
5 TAUGATE_110:A 0.4938
*RES
2 TAUGATE_1:Z TAUNET_110:1 0.3913
3 TAUNET_110:1 TAUNET_110:2 0.2131
4 TAUNET_110:2 TAUNET_110:3 0.3201
5 TAUNET_110:3 TAUGATE_110:A 0.0320
*END

*D_NET TAUNET_41 2.1105
*CONN
*I TAUGATE_153:Z O
*I TAUGATE_41:A I
*CAP
1 TAUGATE_153:Z 0.3378
2 TAUNET_41:1 0.2454
3 TAUNET_41:2 0.4527
4 TAUNET_41:3 0.2663
5 TAUNET_41:4 0.3641
6 TAUNET_41:5 0.1740
7 TAUGATE_41:A 0.2701
*RES
2 TAUGATE_153:Z TAUNET_41:1 0.3351
3 TAUNET_41:1 TAUNET_41:2 0.4105
4 TAUNET_41:2 TAUNET_41:3 0.3004
5 TAUNET_41:3 TAUNET_41:4 0.3665
6 TAUNET_41:4 TAUNET_41:5 0.1341
7 TAUNET_41:5 TAUGATE_41:A 0.0859
*END

*D_NET TAUNET_164 0.5333
*CONN
*P B2 I
*I TAUGATE_164:A I
*CAP
1 B2 0.3812
2 TAUNET_164:1 0.1227
3 TAUGATE_164:A 0.0294
*RES
2 B2 TAUNET_164:1 0.0059
3 TAUNET_164:1 TAUGATE_164:A 0.3552
*END

*D_NET net_42 5.1345
*CONN
*I TAUGATE_123:Z O
*I inst_114:A I
*I inst_48:A1 I
*I inst_61:A1 I
*CAP
1 TAUGATE_123:Z 0.1840
2 net_42:1 0.3573
3 net_42:2 0.4559
4 net_42:3 0.3575
5 net_42:4 0.1715
6 net_42:5 0.3050
7 inst_61:A1 0.3594
8 net_42:6 0.3318
9 net_42:7 0.3308
10 net_42:8 0.4080
11 inst_48:A1 0.4669
12 net_42:9 0.3263
13 net_42:10 0.4574
14 net_42:11 0.4683
15 inst_114:A 0.1543
*RES
2 TAUGATE_123:Z net_42:1 0.4902
3 net_42:1 net_42:2 0.4716
4 net_42:2 net_42:3 0.2112
5 net_42:3 net_42:4 0.1762
6 net_42:4 net_42:5 0.1166
7 net_42:5 inst_61:A1 0.1660
8 net_42:3 net_42:6 0.1932
9 net_42:6 net_42:7 0.0675
10 net_42:7 net_42:8 0.0053
11 net_42:8 inst_48:A1 0.1459
12 net_42:7 net_42:9 0.4873
13 net_42:9 net_42:10 0.1669
14 net_42:10 net_42:11 0.4800
15 net_42:11 inst_114:A 0.4518
*END

*D_NET net_120 1.0930
*CONN
*I TAUGATE_187:Z O
*I inst_45:A1 I
*CAP
1 TAUGATE_187:Z 0.4909
2 net_120:1 0.5008
3 inst_45:A1 0.1013
*RES
2 TAUGATE_187:Z net_120:1 0.2457
3 net_120:1 inst_45:A1 0.4210
*END

*D_NET TAUNET_142 2.3693
*CONN
*I inst_65:ZN O
*I TAUGATE_142:A I
*CAP
1 inst_65:ZN 0.3565
2 TAUNET_142:1 0.4309
3 TAUNET_142:2 0.4474
4 TAUNET_142:3 0.2931
5 TAUNET_142:4 0.2848
6 TAUNET_142:5 0.2246
7 TAUGATE_142:A 0.3320
*RES
2 inst_65:ZN TAUNET_142:1 0.3870
3 TAUNET_142:1 TAUNET_142:2 0.3663
4 TAUNET_142:2 TAUNET_142:3 0.1512
5 TAUNET_142:3 TAUNET_142:4 0.1368
6 TAUNET_142:4 TAUNET_142:5 0.4493
7 TAUNET_142:5 TAUGATE_142:A 0.4663
*END

*D_NET TAUNET_64 1.5003
*CONN
*I inst_109:ZN O
*I TAUGATE_64:A I
*CAP
1 inst_109:ZN 0.1873
2 TAUNET_64:1 0.3589
3 TAUNET_64:2 0.4697
4 TAUGATE_64:A 0.4844
*RES
2 inst_109:ZN TAUNET_64:1 0.0401
3 TAUNET_64:1 TAUNET_64:2 0.2861
4 TAUNET_64:2 TAUGATE_64:A 0.1883
*END

*D_NET TAUNET_211 1.2973
*CONN
*I inst_66:ZN O
*I TAUGATE_211:A I
*CAP
1 inst_66:ZN 0.0604
2 TAUNET_211:1 0.2921
3 TAUNET_211:2 0.4162
4 TAUNET_211:3 0.1285
5 TAUNET_211:4 0.0491
6 TAUGATE_211:A 0.3511
*RES
2 inst_66:ZN TAUNET_211:1 0.2111
3 TAUNET_211:1 TAUNET_211:2 0.3010
4 TAUNET_211:2 TAUNET_211:3 0.1515
5 TAUNET_211:3 TAUNET_211:4 0.0492
6 TAUNET_211:4 TAUGATE_211:A 0.2707
*END

*D_NET TAUNET_221 0.7974
*CONN
*I inst_132:QN O
*I TAUGATE_221:A I
*CAP
1 inst_132:QN 0.2365
2 TAUNET_221:1 0.2080
3 TAUGATE_221:A 0.3529
*RES
2 inst_132:QN TAUNET_221:1 0.4886
3 TAUNET_221:1 TAUGATE_221:A 0.3648
*END

*D_NET net_109 1.5829
*CONN
*I TAUGATE_137:Z O
*I inst_27:A3 I
*CAP
1 TAUGATE_137:Z 0.3187
2 net_109:1 0.0224
3 net_109:2 0.4026
4 net_109:3 0.2784
5 net_109:4 0.1803
6 net_109:5 0.0882
7 inst_27:A3 0.2924
*RES
2 TAUGATE_137:Z net_109:1 0.4780
3 net_109:1 net_109:2 0.3510
4 net_109:2 net_109:3 0.1182
5 net_109:3 net_109:4 0.2614
6 net_109:4 net_109:5 0.1530
7 net_109:5 inst_27:A3 0.2582
*END

*D_NET TAUNET_244 1.1301
*CONN
*I inst_61:ZN O
*I TAUGATE_244:A I
*CAP
1 inst_61:ZN 0.0762
2 TAUNET_244:1 0.3922
3 TAUNET_244:2 0.3950
4 TAUGATE_244:A 0.2666
*RES
2 inst_61:ZN TAUNET_244:1 0.4255
3 TAUNET_244:1 TAUNET_244:2 0.4671
4 TAUNET_244:2 TAUGATE_244:A 0.2972
*END

*D_NET net_80 2.1171
*CONN
*I TAUGATE_241:Z O
*I inst_127:D I
*CAP
1 TAUGATE_241:Z 0.4880
2 net_80:1 0.3167
3 net_80:2 0.3376
4 net_80:3 0.1073
5 net_80:4 0.3579
6 net_80:5 0.1300
7 inst_127:D 0.3795
*RES
2 TAUGATE_241:Z net_80:1 0.2362
3 net_80:1 net_80:2 0.1908
4 net_80:2 net_80:3 0.1996
5 net_80:3 net_80:4 0.3123
6 net_80:4 net_80:5 0.1251
7 net_80:5 inst_127:D 0.0048
*END

*D_NET net_65 1.2973
*CONN
*I TAUGATE_61:Z O
*I inst_121:A I
*I inst_66:A1 I
*CAP
1 TAUGATE_61:Z 0.0195
2 net_65:1 0.3700
3 inst_66:A1 0.3260
4 net_65:2 0.4904
5 inst_121:A 0.0915
*RES
2 TAUGATE_61:Z net_65:1 0.3466
3 net_65:1 inst_66:A1 0.4948
4 net_65:1 net_65:2 0.4619
5 net_65:2 inst_121:A 0.1065
*END

*D_NET blif_reset_net 0.7741
*CONN
*I TAUGATE_78:Z O
*I inst_123:A I
*CAP
1 TAUGATE_78:Z 0.2576
2 blif_reset_net:1 0.2231
3 inst_123:A 0.2934
*RES
2 TAUGATE_78:Z blif_reset_net:1 0.0661
3 blif_reset_net:1 inst_123:A 0.0281
*END

*D_NET TAUNET_81 0.7745
*CONN
*I inst_129:QN O
*I TAUGATE_81:A I
*CAP
1 inst_129:QN 0.2539
2 TAUNET_81:1 0.1980
3 TAUGATE_81:A 0.3226
*RES
2 inst_129:QN TAUNET_81:1 0.1282
3 TAUNET_81:1 TAUGATE_81:A 0.2766
*END

*D_NET TAUNET_189 2.4916
*CONN
*P B0 I
*I TAUGATE_189:A I
*CAP
1 B0 0.4267
2 TAUNET_189:1 0.3295
3 TAUNET_189:2 0.4724
4 TAUNET_189:3 0.4631
5 TAUNET_189:4 0.0407
6 TAUNET_189:5 0.4130
7 TAUGATE_189:A 0.3462
*RES
2 B0 TAUNET_189:1 0.0714
3 TAUNET_189:1 TAUNET_189:2 0.2110
4 TAUNET_189:2 TAUNET_189:3 0.2588
5 TAUNET_189:3 TAUNET_189:4 0.0339
6 TAUNET_189:4 TAUNET_189:5 0.0519
7 TAUNET_189:5 TAUGATE_189:A 0.4874
*END

*D_NET TAUNET_154 1.1229
*CONN
*I inst_69:Z O
*I TAUGATE_154:A I
*CAP
1 inst_69:Z 0.2489
2 TAUNET_154:1 0.0346
3 TAUNET_154:2 0.4333
4 TAUNET_154:3 0.0645
5 TAUGATE_154:A 0.3416
*RES
2 inst_69:Z TAUNET_154:1 0.4099
3 TAUNET_154:1 TAUNET_154:2 0.1540
4 TAUNET_154:2 TAUNET_154:3 0.0325
5 TAUNET_154:3 TAUGATE_154:A 0.0924
*END

*D_NET TAUNET_145 1.2932
*CONN
*I TAUGATE_15:Z O
*I TAUGATE_145:A I
*CAP
1 TAUGATE_15:Z 0.1516
2 TAUNET_145:1 0.4228
3 TAUNET_145:2 0.1417
4 TAUNET_145:3 0.3754
5 TAUGATE_145:A 0.2016
*RES
2 TAUGATE_15:Z TAUNET_145:1 0.0068
3 TAUNET_145:1 TAUNET_145:2 0.2001
4 TAUNET_145:2 TAUNET_145:3 0.4220
5 TAUNET_145:3 TAUGATE_145:A 0.4926
*END

*D_NET net_50 1.4952
*CONN
*I TAUGATE_111:Z O
*I inst_0:A I
*CAP
1 TAUGATE_111:Z 0.3810
2 net_50:1 0.2042
3 net_50:2 0.2030
4 net_50:3 0.2656
5 inst_0:A 0.4413
*RES
2 TAUGATE_111:Z net_50:1 0.1336
3 net_50:1 net_50:2 0.4042
4 net_50:2 net_50:3 0.0451
5 net_50:3 inst_0:A 0.2391
*END

*D_NET TAUNET_48 0.9045
*CONN
*I TAUGATE_72:Z O
*I TAUGATE_48:A I
*CAP
1 TAUGATE_72:Z 0.4146
2 TAUNET_48:1 0.2654
3 TAUGATE_48:A 0.2245
*RES
2 TAUGATE_72:Z TAUNET_48:1 0.4797
3 TAUNET_48:1 TAUGATE_48:A 0.0551
*END

*D_NET net_96 1.5272
*CONN
*I TAUGATE_234:Z O
*I inst_135:D I
*CAP
1 TAUGATE_234:Z 0.0973
2 net_96:1 0.1903
3 net_96:2 0.2143
4 net_96:3 0.0701
5 net_96:4 0.2421
6 net_96:5 0.4634
7 inst_135:D 0.2497
*RES
2 TAUGATE_234:Z net_96:1 0.2766
3 net_96:1 net_96:2 0.3086
4 net_96:2 net_96:3 0.2353
5 net_96:3 net_96:4 0.4838
6 net_96:4 net_96:5 0.0722