*SPEF "IEEE 1481-1998"
*DESIGN "changes"
*DATE "Tue Dec 02 20:32:18 2014"
*VENDOR "TAU 2015 Contest"
*PROGRAM "Benchmark Parasitic Generator"
*VERSION "0.0"
*DESIGN_FLOW "NETLIST_TYPE_VERILOG"
*DIVIDER /
*DELIMITER :
*BUS_DELIMITER [ ]
*T_UNIT 1 PS
*C_UNIT 1 FF
*R_UNIT 1 KOHM
*L_UNIT 1 UH

*D_NET TAUNET_13 1.7439
*CONN
*I inst_31:ZN O
*I TAUGATE_13:A I
*CAP
1 inst_31:ZN 0.2611
2 TAUNET_13:1 0.4098
3 TAUNET_13:2 0.5009
4 TAUNET_13:3 0.2843
5 TAUGATE_13:A 0.2878
*RES
2 inst_31:ZN TAUNET_13:1 0.1659
3 TAUNET_13:1 TAUNET_13:2 0.2742
4 TAUNET_13:2 TAUNET_13:3 0.3494
5 TAUNET_13:3 TAUGATE_13:A 0.1485
*END

*D_NET TAUNET_12 1.3760
*CONN
*I inst_110:ZN O
*I TAUGATE_12:A I
*CAP
1 inst_110:ZN 0.2110
2 TAUNET_12:1 0.3070
3 TAUNET_12:2 0.3583
4 TAUNET_12:3 0.1395
5 TAUNET_12:4 0.0646
6 TAUNET_12:5 0.0794
7 TAUGATE_12:A 0.2161
*RES
2 inst_110:ZN TAUNET_12:1 0.1614
3 TAUNET_12:1 TAUNET_12:2 0.3312
4 TAUNET_12:2 TAUNET_12:3 0.3755
5 TAUNET_12:3 TAUNET_12:4 0.4644
6 TAUNET_12:4 TAUNET_12:5 0.4559
7 TAUNET_12:5 TAUGATE_12:A 0.4050
*END

*D_NET net_47 0.4849
*CONN
*I TAUGATE_18:Z O
*I inst_34:A1 I
*CAP
1 TAUGATE_18:Z 0.1670
2 net_47:1 0.2440
3 net_47:2 0.0332
4 inst_34:A1 0.0406
*RES
2 TAUGATE_18:Z net_47:1 0.2732
3 net_47:1 net_47:2 0.0073
4 net_47:2 inst_34:A1 0.1308
*END

*D_NET P2 1.8161
*CONN
*I TAUGATE_51:Z O
*P P2 O
*CAP
1 TAUGATE_51:Z 0.2909
2 P2:1 0.0740
3 P2:2 0.4871
4 P2:3 0.4951
5 P2:4 0.4125
6 P2 0.0565
*RES
2 TAUGATE_51:Z P2:1 0.1285
3 P2:1 P2:2 0.0292
4 P2:2 P2:3 0.2926
5 P2:3 P2:4 0.4507
6 P2:4 P2 0.3356
*END

*D_NET TAUNET_1 1.9602
*CONN
*I TAUGATE_24:Z O
*I TAUGATE_1:A I
*CAP
1 TAUGATE_24:Z 0.3845
2 TAUNET_1:1 0.3056
3 TAUNET_1:2 0.3464
4 TAUNET_1:3 0.0305
5 TAUNET_1:4 0.2383
6 TAUNET_1:5 0.4020
7 TAUGATE_1:A 0.2529
*RES
2 TAUGATE_24:Z TAUNET_1:1 0.2665
3 TAUNET_1:1 TAUNET_1:2 0.4354
4 TAUNET_1:2 TAUNET_1:3 0.1977
5 TAUNET_1:3 TAUNET_1:4 0.0788
6 TAUNET_1:4 TAUNET_1:5 0.3276
7 TAUNET_1:5 TAUGATE_1:A 0.3833
*END

*D_NET net_91 0.8670
*CONN
*I TAUGATE_30:Z O
*I inst_21:A3 I
*CAP
1 TAUGATE_30:Z 0.0716
2 net_91:1 0.1922
3 net_91:2 0.2805
4 net_91:3 0.1322
5 inst_21:A3 0.1905
*RES
2 TAUGATE_30:Z net_91:1 0.4017
3 net_91:1 net_91:2 0.4680
4 net_91:2 net_91:3 0.2976
5 net_91:3 inst_21:A3 0.2331
*END

*D_NET TAUNET_35 1.3358
*CONN
*I inst_40:ZN O
*I TAUGATE_35:A I
*CAP
1 inst_40:ZN 0.3943
2 TAUNET_35:1 0.1955
3 TAUNET_35:2 0.1868
4 TAUNET_35:3 0.4889
5 TAUGATE_35:A 0.0703
*RES
2 inst_40:ZN TAUNET_35:1 0.3298
3 TAUNET_35:1 TAUNET_35:2 0.4131
4 TAUNET_35:2 TAUNET_35:3 0.3310
5 TAUNET_35:3 TAUGATE_35:A 0.2621
*END

*D_NET net_119 0.9833
*CONN
*I TAUGATE_43:Z O
*I inst_36:A1 I
*CAP
1 TAUGATE_43:Z 0.1808
2 net_119:1 0.3990
3 inst_36:A1 0.4035
*RES
2 TAUGATE_43:Z net_119:1 0.0219
3 net_119:1 inst_36:A1 0.0830
*END

*D_NET P7 1.6212
*CONN
*I TAUGATE_12:Z O
*P P7 O
*CAP
1 TAUGATE_12:Z 0.1250
2 P7:1 0.4976
3 P7:2 0.3591
4 P7:3 0.2780
5 P7:4 0.2022
6 P7 0.1593
*RES
2 TAUGATE_12:Z P7:1 0.4382
3 P7:1 P7:2 0.3498
4 P7:2 P7:3 0.4055
5 P7:3 P7:4 0.4519
6 P7:4 P7 0.4658
*END

*D_NET net_12 1.1222
*CONN
*I TAUGATE_53:Z O
*I inst_84:A I
*CAP
1 TAUGATE_53:Z 0.4019
2 net_12:1 0.2503
3 inst_84:A 0.4700
*RES
2 TAUGATE_53:Z net_12:1 0.3789
3 net_12:1 inst_84:A 0.3545
*END

*D_NET net_74 1.0398
*CONN
*I TAUGATE_27:Z O
*I inst_128:D I
*CAP
1 TAUGATE_27:Z 0.4316
2 net_74:1 0.4734
3 net_74:2 0.0376
4 inst_128:D 0.0972
*RES
2 TAUGATE_27:Z net_74:1 0.3594
3 net_74:1 net_74:2 0.0525
4 net_74:2 inst_128:D 0.3248
*END

*D_NET TAUNET_46 1.7532
*CONN
*I inst_55:ZN O
*I TAUGATE_46:A I
*CAP
1 inst_55:ZN 0.1267
2 TAUNET_46:1 0.2434
3 TAUNET_46:2 0.3726
4 TAUNET_46:3 0.2980
5 TAUNET_46:4 0.2454
6 TAUGATE_46:A 0.4670
*RES
2 inst_55:ZN TAUNET_46:1 0.1921
3 TAUNET_46:1 TAUNET_46:2 0.1376
4 TAUNET_46:2 TAUNET_46:3 0.4443
5 TAUNET_46:3 TAUNET_46:4 0.1288
6 TAUNET_46:4 TAUGATE_46:A 0.3022
*END

*D_NET TAUNET_24 1.8873
*CONN
*P B2 I
*I TAUGATE_24:A I
*CAP
1 B2 0.0668
2 TAUNET_24:1 0.4131
3 TAUNET_24:2 0.4004
4 TAUNET_24:3 0.4814
5 TAUNET_24:4 0.1341
6 TAUGATE_24:A 0.3915
*RES
2 B2 TAUNET_24:1 0.0282
3 TAUNET_24:1 TAUNET_24:2 0.3089
4 TAUNET_24:2 TAUNET_24:3 0.0253
5 TAUNET_24:3 TAUNET_24:4 0.3105
6 TAUNET_24:4 TAUGATE_24:A 0.1881
*END

*D_NET TAUNET_16 1.4805
*CONN
*I inst_137:QN O
*I TAUGATE_16:A I
*CAP
1 inst_137:QN 0.1592
2 TAUNET_16:1 0.2761
3 TAUNET_16:2 0.3643
4 TAUNET_16:3 0.2288
5 TAUNET_16:4 0.0666
6 TAUGATE_16:A 0.3854
*RES
2 inst_137:QN TAUNET_16:1 0.3580
3 TAUNET_16:1 TAUNET_16:2 0.3774
4 TAUNET_16:2 TAUNET_16:3 0.2731
5 TAUNET_16:3 TAUNET_16:4 0.1525
6 TAUNET_16:4 TAUGATE_16:A 0.0518
*END

*D_NET TAUNET_31 1.2665
*CONN
*I inst_122:ZN O
*I TAUGATE_31:A I
*CAP
1 inst_122:ZN 0.2154
2 TAUNET_31:1 0.1648
3 TAUNET_31:2 0.1855
4 TAUNET_31:3 0.0112
5 TAUNET_31:4 0.3530
6 TAUNET_31:5 0.1128
7 TAUGATE_31:A 0.2239
*RES
2 inst_122:ZN TAUNET_31:1 0.0917
3 TAUNET_31:1 TAUNET_31:2 0.4230
4 TAUNET_31:2 TAUNET_31:3 0.1494
5 TAUNET_31:3 TAUNET_31:4 0.3290
6 TAUNET_31:4 TAUNET_31:5 0.1620
7 TAUNET_31:5 TAUGATE_31:A 0.0029
*END

*D_NET TAUNET_25 1.0297
*CONN
*I inst_107:ZN O
*I TAUGATE_25:A I
*CAP
1 inst_107:ZN 0.1903
2 TAUNET_25:1 0.3484
3 TAUNET_25:2 0.0801
4 TAUNET_25:3 0.1392
5 TAUNET_25:4 0.1891
6 TAUNET_25:5 0.0464
7 TAUGATE_25:A 0.0364
*RES
2 inst_107:ZN TAUNET_25:1 0.0279
3 TAUNET_25:1 TAUNET_25:2 0.4104
4 TAUNET_25:2 TAUNET_25:3 0.0649
5 TAUNET_25:3 TAUNET_25:4 0.0510
6 TAUNET_25:4 TAUNET_25:5 0.1600
7 TAUNET_25:5 TAUGATE_25:A 0.1748
*END

*D_NET TAUNET_27 1.6599
*CONN
*I inst_70:Z O
*I TAUGATE_27:A I
*CAP
1 inst_70:Z 0.1076
2 TAUNET_27:1 0.3388
3 TAUNET_27:2 0.4657
4 TAUNET_27:3 0.3595
5 TAUNET_27:4 0.2471
6 TAUNET_27:5 0.0832
7 TAUGATE_27:A 0.0580
*RES
2 inst_70:Z TAUNET_27:1 0.3736
3 TAUNET_27:1 TAUNET_27:2 0.0395
4 TAUNET_27:2 TAUNET_27:3 0.3644
5 TAUNET_27:3 TAUNET_27:4 0.0829
6 TAUNET_27:4 TAUNET_27:5 0.1977
7 TAUNET_27:5 TAUGATE_27:A 0.4694
*END

*D_NET TAUNET_28 2.0853
*CONN
*I TAUGATE_1:Z O
*I TAUGATE_28:A I
*CAP
1 TAUGATE_1:Z 0.3882
2 TAUNET_28:1 0.0413
3 TAUNET_28:2 0.4651
4 TAUNET_28:3 0.4065
5 TAUNET_28:4 0.3164
6 TAUNET_28:5 0.3513
7 TAUGATE_28:A 0.1165
*RES
2 TAUGATE_1:Z TAUNET_28:1 0.0986
3 TAUNET_28:1 TAUNET_28:2 0.2243
4 TAUNET_28:2 TAUNET_28:3 0.1286
5 TAUNET_28:3 TAUNET_28:4 0.4269
6 TAUNET_28:4 TAUNET_28:5 0.2482
7 TAUNET_28:5 TAUGATE_28:A 0.2195
*END

*D_NET TAUNET_57 1.7569
*CONN
*I inst_84:ZN O
*I TAUGATE_57:A I
*CAP
1 inst_84:ZN 0.4091
2 TAUNET_57:1 0.3587
3 TAUNET_57:2 0.1869
4 TAUNET_57:3 0.4974
5 TAUGATE_57:A 0.3047
*RES
2 inst_84:ZN TAUNET_57:1 0.1200
3 TAUNET_57:1 TAUNET_57:2 0.4969
4 TAUNET_57:2 TAUNET_57:3 0.1210
5 TAUNET_57:3 TAUGATE_57:A 0.1733
*END

*D_NET net_5 1.1896
*CONN
*I TAUGATE_34:Z O
*I inst_82:A I
*CAP
1 TAUGATE_34:Z 0.0283
2 net_5:1 0.2945
3 net_5:2 0.3177
4 net_5:3 0.2101
5 inst_82:A 0.3390
*RES
2 TAUGATE_34:Z net_5:1 0.2046
3 net_5:1 net_5:2 0.3404
4 net_5:2 net_5:3 0.1317
5 net_5:3 inst_82:A 0.3617
*END

*D_NET TAUNET_9 1.2055
*CONN
*I TAUGATE_48:Z O
*I TAUGATE_9:A I
*CAP
1 TAUGATE_48:Z 0.3629
2 TAUNET_9:1 0.3900
3 TAUNET_9:2 0.0557
4 TAUNET_9:3 0.1253
5 TAUGATE_9:A 0.2716
*RES
2 TAUGATE_48:Z TAUNET_9:1 0.3735
3 TAUNET_9:1 TAUNET_9:2 0.1079
4 TAUNET_9:2 TAUNET_9:3 0.3323
5 TAUNET_9:3 TAUGATE_9:A 0.2907
*END

*D_NET TAUNET_37 1.4383
*CONN
*P A3 I
*I TAUGATE_37:A I
*CAP
1 A3 0.4966
2 TAUNET_37:1 0.2702
3 TAUNET_37:2 0.2135
4 TAUNET_37:3 0.0419
5 TAUNET_37:4 0.2773
6 TAUNET_37:5 0.0903
7 TAUGATE_37:A 0.0485
*RES
2 A3 TAUNET_37:1 0.4602
3 TAUNET_37:1 TAUNET_37:2 0.4262
4 TAUNET_37:2 TAUNET_37:3 0.2009
5 TAUNET_37:3 TAUNET_37:4 0.3114
6 TAUNET_37:4 TAUNET_37:5 0.3090
7 TAUNET_37:5 TAUGATE_37:A 0.3972
*END

*D_NET TAUNET_32 1.1430
*CONN
*I inst_79:ZN O
*I TAUGATE_32:A I
*CAP
1 inst_79:ZN 0.2443
2 TAUNET_32:1 0.3734
3 TAUNET_32:2 0.1567
4 TAUNET_32:3 0.1247
5 TAUGATE_32:A 0.2439
*RES
2 inst_79:ZN TAUNET_32:1 0.2588
3 TAUNET_32:1 TAUNET_32:2 0.4474
4 TAUNET_32:2 TAUNET_32:3 0.3528
5 TAUNET_32:3 TAUGATE_32:A 0.0472
*END

*D_NET net_128 10.3294
*CONN
*I TAUGATE_13:Z O
*I inst_76:A I
*I inst_59:A2 I
*I inst_105:A I
*I inst_62:A1 I
*I inst_57:A2 I
*I inst_56:A2 I
*I inst_58:A2 I
*I inst_75:A I
*I inst_106:A I
*I inst_77:A I
*CAP
1 TAUGATE_13:Z 0.1981
2 net_128:1 0.0169
3 net_128:2 0.4026
4 net_128:3 0.4684
5 net_128:4 0.2490
6 inst_106:A 0.0579
7 net_128:5 0.0209
8 net_128:6 0.4380
9 inst_59:A2 0.4130
10 net_128:7 0.4464
11 net_128:8 0.2438
12 net_128:9 0.2969
13 inst_105:A 0.3091
14 net_128:10 0.2618
15 net_128:11 0.2468
16 net_128:12 0.4002
17 net_128:13 0.3652
18 inst_62:A1 0.1857
19 net_128:14 0.1130
20 net_128:15 0.1026
21 inst_57:A2 0.1939
22 net_128:16 0.1138
23 net_128:17 0.4033
24 net_128:18 0.3663
25 net_128:19 0.2540
26 net_128:20 0.0526
27 inst_56:A2 0.2388
28 net_128:21 0.4935
29 inst_58:A2 0.2412
30 net_128:22 0.0266
31 inst_75:A 0.0274
32 net_128:23 0.3985
33 net_128:24 0.0145
34 net_128:25 0.0725
35 net_128:26 0.4492
36 net_128:27 0.3124
37 inst_76:A 0.3685
38 net_128:28 0.4634
39 net_128:29 0.2869
40 net_128:30 0.1646
41 net_128:31 0.1182
42 inst_77:A 0.0327
*RES
2 TAUGATE_13:Z net_128:1 0.0423
3 net_128:1 net_128:2 0.2861
4 net_128:2 net_128:3 0.4278
5 net_128:3 net_128:4 0.3875
6 net_128:4 inst_106:A 0.4796
7 net_128:4 net_128:5 0.4990
8 net_128:5 net_128:6 0.2134
9 net_128:6 inst_59:A2 0.1115
10 net_128:5 net_128:7 0.5006
11 net_128:7 net_128:8 0.2264
12 net_128:8 net_128:9 0.3973
13 net_128:9 inst_105:A 0.2044
14 net_128:3 net_128:10 0.0562
15 net_128:10 net_128:11 0.0882
16 net_128:11 net_128:12 0.4386
17 net_128:12 net_128:13 0.2715
18 net_128:13 inst_62:A1 0.0199
19 net_128:11 net_128:14 0.1095
20 net_128:14 net_128:15 0.0212
21 net_128:15 inst_57:A2 0.1417
22 net_128:7 net_128:16 0.1787
23 net_128:16 net_128:17 0.3603
24 net_128:17 net_128:18 0.0603
25 net_128:18 net_128:19 0.0863
26 net_128:19 net_128:20 0.3102
27 net_128:20 inst_56:A2 0.1239
28 net_128:10 net_128:21 0.3995
29 net_128:21 inst_58:A2 0.4441
30 net_128:19 net_128:22 0.4218
31 net_128:22 inst_75:A 0.2061
32 net_128:10 net_128:23 0.4317
33 net_128:23 net_128:24 0.1801
34 net_128:24 net_128:25 0.2826
35 net_128:25 net_128:26 0.3420
36 net_128:26 net_128:27 0.0965
37 net_128:27 inst_76:A 0.2555
38 net_128:7 net_128:28 0.0608
39 net_128:28 net_128:29 0.3721
40 net_128:29 net_128:30 0.4648
41 net_128:30 net_128:31 0.2376
42 net_128:31 inst_77:A 0.1146
*END

*D_NET net_14 0.6447
*CONN
*I TAUGATE_20:Z O
*I inst_9:A1 I
*CAP
1 TAUGATE_20:Z 0.1439
2 net_14:1 0.2502
3 inst_9:A1 0.2506
*RES
2 TAUGATE_20:Z net_14:1 0.4486
3 net_14:1 inst_9:A1 0.0641
*END

*D_NET TAUNET_38 0.3299
*CONN
*I inst_90:ZN O
*I TAUGATE_38:A I
*CAP
1 inst_90:ZN 0.0079
2 TAUNET_38:1 0.2219
3 TAUGATE_38:A 0.1001
*RES
2 inst_90:ZN TAUNET_38:1 0.2747
3 TAUNET_38:1 TAUGATE_38:A 0.1704
*END

*D_NET net_113 1.7087
*CONN
*I TAUGATE_25:Z O
*I inst_6:A2 I
*I inst_20:A1 I
*I inst_7:A2 I
*CAP
1 TAUGATE_25:Z 0.0121
2 net_113:1 0.0267
3 inst_20:A1 0.1278
4 net_113:2 0.2505
5 net_113:3 0.2036
6 net_113:4 0.3990
7 net_113:5 0.0185
8 net_113:6 0.3777
9 inst_6:A2 0.2437
10 net_113:7 0.0227
11 inst_7:A2 0.0264
*RES
2 TAUGATE_25:Z net_113:1 0.1079
3 net_113:1 inst_20:A1 0.3621
4 net_113:1 net_113:2 0.3641
5 net_113:2 net_113:3 0.1411
6 net_113:3 net_113:4 0.2452
7 net_113:4 net_113:5 0.2723
8 net_113:5 net_113:6 0.2079
9 net_113:6 inst_6:A2 0.2449
10 net_113:1 net_113:7 0.0174
11 net_113:7 inst_7:A2 0.1906
*END

*D_NET P0 2.1121
*CONN
*I TAUGATE_40:Z O
*P P0 O
*I inst_78:A I
*CAP
1 TAUGATE_40:Z 0.0937
2 P0:1 0.3987
3 P0:2 0.0209
4 P0:3 0.1182
5 P0 0.1067
6 P0:4 0.5008
7 P0:5 0.2979
8 P0:6 0.3428
9 inst_78:A 0.2325
*RES
2 TAUGATE_40:Z P0:1 0.4881
3 P0:1 P0:2 0.3672
4 P0:2 P0:3 0.4629
5 P0:3 P0 0.1157
6 P0:1 P0:4 0.2733
7 P0:4 P0:5 0.1266
8 P0:5 P0:6 0.3814
9 P0:6 inst_78:A 0.1363
*END

*D_NET net_76 1.9996
*CONN
*I TAUGATE_21:Z O
*I inst_63:A1 I
*CAP
1 TAUGATE_21:Z 0.3144
2 net_76:1 0.3676
3 net_76:2 0.1603
4 net_76:3 0.4423
5 net_76:4 0.1159
6 net_76:5 0.4527
7 inst_63:A1 0.1465
*RES
2 TAUGATE_21:Z net_76:1 0.1463
3 net_76:1 net_76:2 0.4621
4 net_76:2 net_76:3 0.4065
5 net_76:3 net_76:4 0.0227
6 net_76:4 net_76:5 0.2236
7 net_76:5 inst_63:A1 0.4114
*END

*D_NET net_101 0.9678
*CONN
*I TAUGATE_39:Z O
*I inst_137:D I
*CAP
1 TAUGATE_39:Z 0.1546
2 net_101:1 0.4367
3 net_101:2 0.3452
4 inst_137:D 0.0313
*RES
2 TAUGATE_39:Z net_101:1 0.1217
3 net_101:1 net_101:2 0.0111
4 net_101:2 inst_137:D 0.1222
*END

*D_NET net_94 4.7930
*CONN
*I TAUGATE_45:Z O
*I inst_64:A2 I
*I inst_122:A I
*I inst_65:A2 I
*I inst_39:A1 I
*CAP
1 TAUGATE_45:Z 0.1692
2 net_94:1 0.4978
3 net_94:2 0.2563
4 net_94:3 0.2595
5 net_94:4 0.2603
6 net_94:5 0.2874
7 inst_64:A2 0.3072
8 net_94:6 0.4796
9 net_94:7 0.3806
10 net_94:8 0.4946
11 inst_122:A 0.4608
12 net_94:9 0.4103
13 net_94:10 0.0845
14 inst_65:A2 0.1888
15 net_94:11 0.2069
16 inst_39:A1 0.0491
*RES
2 TAUGATE_45:Z net_94:1 0.2768
3 net_94:1 net_94:2 0.1679
4 net_94:2 net_94:3 0.2053
5 net_94:3 net_94:4 0.2140
6 net_94:4 net_94:5 0.3306
7 net_94:5 inst_64:A2 0.1569
8 net_94:3 net_94:6 0.4692
9 net_94:6 net_94:7 0.4766
10 net_94:7 net_94:8 0.0589
11 net_94:8 inst_122:A 0.0962
12 net_94:5 net_94:9 0.1436
13 net_94:9 net_94:10 0.1762
14 net_94:10 inst_65:A2 0.4748
15 net_94:2 net_94:11 0.4137
16 net_94:11 inst_39:A1 0.3046
*END

*D_NET TAUNET_40 1.0479
*CONN
*I inst_139:Z O
*I TAUGATE_40:A I
*CAP
1 inst_139:Z 0.2640
2 TAUNET_40:1 0.4110
3 TAUNET_40:2 0.0191
4 TAUGATE_40:A 0.3538
*RES
2 inst_139:Z TAUNET_40:1 0.4300
3 TAUNET_40:1 TAUNET_40:2 0.3629
4 TAUNET_40:2 TAUGATE_40:A 0.0787
*END

*D_NET TAUNET_20 2.0675
*CONN
*I inst_91:ZN O
*I TAUGATE_20:A I
*CAP
1 inst_91:ZN 0.2971
2 TAUNET_20:1 0.5010
3 TAUNET_20:2 0.3538
4 TAUNET_20:3 0.4649
5 TAUNET_20:4 0.0482
6 TAUNET_20:5 0.1062
7 TAUGATE_20:A 0.2963
*RES
2 inst_91:ZN TAUNET_20:1 0.4911
3 TAUNET_20:1 TAUNET_20:2 0.2002
4 TAUNET_20:2 TAUNET_20:3 0.2573
5 TAUNET_20:3 TAUNET_20:4 0.3761
6 TAUNET_20:4 TAUNET_20:5 0.0616
7 TAUNET_20:5 TAUGATE_20:A 0.4298
*END

*D_NET net_40 0.5116
*CONN
*I TAUGATE_29:Z O
*I inst_54:A1 I
*CAP
1 TAUGATE_29:Z 0.2634
2 net_40:1 0.0745
3 inst_54:A1 0.1738
*RES
2 TAUGATE_29:Z net_40:1 0.4336
3 net_40:1 inst_54:A1 0.4556
*END

*D_NET net_11 1.0764
*CONN
*I TAUGATE_59:Z O
*I inst_87:A I
*CAP
1 TAUGATE_59:Z 0.0036
2 net_11:1 0.2737
3 net_11:2 0.3095
4 inst_87:A 0.4895
*RES
2 TAUGATE_59:Z net_11:1 0.4033
3 net_11:1 net_11:2 0.2734
4 net_11:2 inst_87:A 0.3461
*END

*D_NET net_100 5.1294
*CONN
*I TAUGATE_58:Z O
*I inst_24:A2 I
*I inst_27:A2 I
*I inst_25:A2 I
*I inst_23:A2 I
*CAP
1 TAUGATE_58:Z 0.0418
2 net_100:1 0.3815
3 net_100:2 0.1458
4 net_100:3 0.4915
5 net_100:4 0.0683
6 inst_25:A2 0.2135
7 net_100:5 0.3473
8 net_100:6 0.1114
9 net_100:7 0.0198
10 net_100:8 0.2366
11 net_100:9 0.1100
12 inst_27:A2 0.2818
13 net_100:10 0.1394
14 net_100:11 0.0096
15 net_100:12 0.4963
16 net_100:13 0.2377
17 inst_24:A2 0.2571
18 net_100:14 0.1345
19 net_100:15 0.4134
20 net_100:16 0.0741
21 net_100:17 0.4290
22 inst_23:A2 0.4891
*RES
2 TAUGATE_58:Z net_100:1 0.4484
3 net_100:1 net_100:2 0.1379
4 net_100:2 net_100:3 0.1139
5 net_100:3 net_100:4 0.0489
6 net_100:4 inst_25:A2 0.0861
7 net_100:1 net_100:5 0.3290
8 net_100:5 net_100:6 0.1592
9 net_100:6 net_100:7 0.4236
10 net_100:7 net_100:8 0.3328
11 net_100:8 net_100:9 0.1906
12 net_100:9 inst_27:A2 0.5003
13 net_100:9 net_100:10 0.3610
14 net_100:10 net_100:11 0.0042
15 net_100:11 net_100:12 0.2690
16 net_100:12 net_100:13 0.3841
17 net_100:13 inst_24:A2 0.3400
18 net_100:6 net_100:14 0.0621
19 net_100:14 net_100:15 0.2122
20 net_100:15 net_100:16 0.2034
21 net_100:16 net_100:17 0.1253
22 net_100:17 inst_23:A2 0.2112
*END

*D_NET TAUNET_14 0.7145
*CONN
*I inst_3:ZN O
*I TAUGATE_14:A I
*CAP
1 inst_3:ZN 0.1106
2 TAUNET_14:1 0.2644
3 TAUGATE_14:A 0.3395
*RES
2 inst_3:ZN TAUNET_14:1 0.4160
3 TAUNET_14:1 TAUGATE_14:A 0.1311
*END

*D_NET net_18 1.7757
*CONN
*I TAUGATE_47:Z O
*I inst_95:A I
*I inst_18:A2 I
*CAP
1 TAUGATE_47:Z 0.0535
2 net_18:1 0.2939
3 inst_95:A 0.2177
4 net_18:2 0.1825
5 net_18:3 0.4154
6 net_18:4 0.4205
7 inst_18:A2 0.1921
*RES
2 TAUGATE_47:Z net_18:1 0.0520
3 net_18:1 inst_95:A 0.1787
4 net_18:1 net_18:2 0.3303
5 net_18:2 net_18:3 0.0500
6 net_18:3 net_18:4 0.3450
7 net_18:4 inst_18:A2 0.2552
*END

*D_NET TAUNET_49 0.9333
*CONN
*I inst_43:ZN O
*I TAUGATE_49:A I
*CAP
1 inst_43:ZN 0.3943
2 TAUNET_49:1 0.3586
3 TAUGATE_49:A 0.1804
*RES
2 inst_43:ZN TAUNET_49:1 0.2132
3 TAUNET_49:1 TAUGATE_49:A 0.3448
*END

*D_NET net_68 1.8354
*CONN
*I TAUGATE_54:Z O
*I inst_118:A I
*I inst_34:A2 I
*I inst_60:A2 I
*CAP
1 TAUGATE_54:Z 0.0169
2 net_68:1 0.3418
3 net_68:2 0.0277
4 net_68:3 0.2232
5 inst_34:A2 0.0700
6 net_68:4 0.2720
7 net_68:5 0.0605
8 inst_118:A 0.1555
9 net_68:6 0.3163
10 inst_60:A2 0.3515
*RES
2 TAUGATE_54:Z net_68:1 0.3825
3 net_68:1 net_68:2 0.4916
4 net_68:2 net_68:3 0.0258
5 net_68:3 inst_34:A2 0.0722
6 net_68:2 net_68:4 0.4347
7 net_68:4 net_68:5 0.2976
8 net_68:5 inst_118:A 0.3531
9 net_68:2 net_68:6 0.2983
10 net_68:6 inst_60:A2 0.4269
*END

*D_NET B3 1.6831
*CONN
*I TAUGATE_26:Z O
*I inst_2:A1 I
*CAP
1 TAUGATE_26:Z 0.0341
2 B3:1 0.3389
3 B3:2 0.4000
4 B3:3 0.0188
5 B3:4 0.4709
6 inst_2:A1 0.4204
*RES
2 TAUGATE_26:Z B3:1 0.0122
3 B3:1 B3:2 0.2688
4 B3:2 B3:3 0.0936
5 B3:3 B3:4 0.3051
6 B3:4 inst_2:A1 0.1197
*END

*D_NET net_115 0.8159
*CONN
*I TAUGATE_17:Z O
*I inst_22:A1 I
*CAP
1 TAUGATE_17:Z 0.2210
2 net_115:1 0.2798
3 inst_22:A1 0.3150
*RES
2 TAUGATE_17:Z net_115:1 0.0137
3 net_115:1 inst_22:A1 0.2108
*END

*D_NET TAUNET_50 1.1420
*CONN
*I inst_45:ZN O
*I TAUGATE_50:A I
*CAP
1 inst_45:ZN 0.0161
2 TAUNET_50:1 0.3729
3 TAUNET_50:2 0.0610
4 TAUNET_50:3 0.4010
5 TAUGATE_50:A 0.2910
*RES
2 inst_45:ZN TAUNET_50:1 0.3768
3 TAUNET_50:1 TAUNET_50:2 0.3083
4 TAUNET_50:2 TAUNET_50:3 0.1250
5 TAUNET_50:3 TAUGATE_50:A 0.3526
*END

*D_NET net_31 1.6292
*CONN
*I TAUGATE_49:Z O
*I inst_50:A2 I
*CAP
1 TAUGATE_49:Z 0.3144
2 net_31:1 0.0820
3 net_31:2 0.2174
4 net_31:3 0.3638
5 net_31:4 0.4097
6 inst_50:A2 0.2418
*RES
2 TAUGATE_49:Z net_31:1 0.4080
3 net_31:1 net_31:2 0.3118
4 net_31:2 net_31:3 0.4981
5 net_31:3 net_31:4 0.3134
6 net_31:4 inst_50:A2 0.4059
*END

*D_NET net_20 0.9494
*CONN
*I TAUGATE_33:Z O
*I inst_59:A1 I
*CAP
1 TAUGATE_33:Z 0.0910
2 net_20:1 0.3093
3 net_20:2 0.3342
4 inst_59:A1 0.2150
*RES
2 TAUGATE_33:Z net_20:1 0.0109
3 net_20:1 net_20:2 0.1830
4 net_20:2 inst_59:A1 0.2298
*END

*D_NET TAUNET_23 0.1587
*CONN
*I inst_51:ZN O
*I TAUGATE_23:A I
*CAP
1 inst_51:ZN 0.0044
2 TAUNET_23:1 0.0476
3 TAUNET_23:2 0.0521
4 TAUGATE_23:A 0.0546
*RES
2 inst_51:ZN TAUNET_23:1 0.0043
3 TAUNET_23:1 TAUNET_23:2 0.2737
4 TAUNET_23:2 TAUGATE_23:A 0.4724
*END

*D_NET TAUNET_39 1.0994
*CONN
*I inst_25:ZN O
*I TAUGATE_39:A I
*CAP
1 inst_25:ZN 0.2426
2 TAUNET_39:1 0.2784
3 TAUNET_39:2 0.2008
4 TAUGATE_39:A 0.3776
*RES
2 inst_25:ZN TAUNET_39:1 0.2937
3 TAUNET_39:1 TAUNET_39:2 0.0093
4 TAUNET_39:2 TAUGATE_39:A 0.2822
*END

*D_NET net_95 1.0927
*CONN
*I TAUGATE_44:Z O
*I inst_24:A3 I
*CAP
1 TAUGATE_44:Z 0.0309
2 net_95:1 0.3809
3 net_95:2 0.3567
4 inst_24:A3 0.3242
*RES
2 TAUGATE_44:Z net_95:1 0.2336
3 net_95:1 net_95:2 0.3863
4 net_95:2 inst_24:A3 0.2365
*END

*D_NET net_17 2.4001
*CONN
*I TAUGATE_38:Z O
*I inst_35:A2 I
*I inst_94:A I
*CAP
1 TAUGATE_38:Z 0.3572
2 net_17:1 0.2185
3 net_17:2 0.2266
4 net_17:3 0.2538
5 inst_35:A2 0.1297
6 net_17:4 0.1830
7 net_17:5 0.3035
8 net_17:6 0.4053
9 net_17:7 0.0863
10 inst_94:A 0.2362
*RES
2 TAUGATE_38:Z net_17:1 0.4791
3 net_17:1 net_17:2 0.2417
4 net_17:2 net_17:3 0.2444
5 net_17:3 inst_35:A2 0.4262
6 net_17:3 net_17:4 0.1365
7 net_17:4 net_17:5 0.0277
8 net_17:5 net_17:6 0.4263
9 net_17:6 net_17:7 0.2912
10 net_17:7 inst_94:A 0.1111
*END

*D_NET net_36 3.5949
*CONN
*I TAUGATE_32:Z O
*I inst_46:A1 I
*I inst_113:A I
*I inst_73:B I
*CAP
1 TAUGATE_32:Z 0.0512
2 net_36:1 0.0984
3 net_36:2 0.0368
4 inst_73:B 0.4376
5 net_36:3 0.4832
6 net_36:4 0.2776
7 net_36:5 0.3781
8 net_36:6 0.3766
9 net_36:7 0.0185
10 inst_113:A 0.3877
11 net_36:8 0.4372
12 net_36:9 0.1158
13 net_36:10 0.1153
14 inst_46:A1 0.3810
*RES
2 TAUGATE_32:Z net_36:1 0.1423
3 net_36:1 net_36:2 0.1283
4 net_36:2 inst_73:B 0.1146
5 net_36:2 net_36:3 0.1588
6 net_36:3 net_36:4 0.3738
7 net_36:4 net_36:5 0.4556
8 net_36:5 net_36:6 0.1835
9 net_36:6 net_36:7 0.0020
10 net_36:7 inst_113:A 0.2614
11 net_36:4 net_36:8 0.1100
12 net_36:8 net_36:9 0.1662
13 net_36:9 net_36:10 0.3178
14 net_36:10 inst_46:A1 0.2541
*END

*D_NET TAUNET_51 1.5558
*CONN
*I inst_112:ZN O
*I TAUGATE_51:A I
*CAP
1 inst_112:ZN 0.4625
2 TAUNET_51:1 0.0981
3 TAUNET_51:2 0.3461
4 TAUNET_51:3 0.2382
5 TAUGATE_51:A 0.4109
*RES
2 inst_112:ZN TAUNET_51:1 0.0945
3 TAUNET_51:1 TAUNET_51:2 0.2326
4 TAUNET_51:2 TAUNET_51:3 0.0121
5 TAUNET_51:3 TAUGATE_51:A 0.2674
*END

*D_NET net_27 2.5547
*CONN
*I TAUGATE_55:Z O
*I inst_1:B I
*I inst_42:A1 I
*CAP
1 TAUGATE_55:Z 0.0414
2 net_27:1 0.1970
3 net_27:2 0.0138
4 net_27:3 0.4527
5 inst_1:B 0.3131
6 net_27:4 0.3736
7 net_27:5 0.3306
8 net_27:6 0.3042
9 net_27:7 0.1317
10 net_27:8 0.1481
11 inst_42:A1 0.2485
*RES
2 TAUGATE_55:Z net_27:1 0.4392
3 net_27:1 net_27:2 0.4048
4 net_27:2 net_27:3 0.0368
5 net_27:3 inst_1:B 0.3283
6 net_27:2 net_27:4 0.2201
7 net_27:4 net_27:5 0.2966
8 net_27:5 net_27:6 0.3013
9 net_27:6 net_27:7 0.0758
10 net_27:7 net_27:8 0.0262
11 net_27:8 inst_42:A1 0.3812
*END

*D_NET net_41 0.5106
*CONN
*I TAUGATE_14:Z O
*I inst_53:A1 I
*CAP
1 TAUGATE_14:Z 0.1550
2 net_41:1 0.1418
3 inst_53:A1 0.2138
*RES
2 TAUGATE_14:Z net_41:1 0.3805
3 net_41:1 inst_53:A1 0.2523
*END

*D_NET TAUNET_19 1.6754
*CONN
*I inst_78:ZN O
*I TAUGATE_19:A I
*CAP
1 inst_78:ZN 0.4938
2 TAUNET_19:1 0.2131
3 TAUNET_19:2 0.3201
4 TAUNET_19:3 0.0320
5 TAUNET_19:4 0.2786
6 TAUGATE_19:A 0.3378
*RES
2 inst_78:ZN TAUNET_19:1 0.4364
3 TAUNET_19:1 TAUNET_19:2 0.2454
4 TAUNET_19:2 TAUNET_19:3 0.4527
5 TAUNET_19:3 TAUNET_19:4 0.2663
6 TAUNET_19:4 TAUGATE_19:A 0.3641
*END

*D_NET TAUNET_34 1.5675
*CONN
*I inst_128:QN O
*I TAUGATE_34:A I
*CAP
1 inst_128:QN 0.2701
2 TAUNET_34:1 0.4105
3 TAUNET_34:2 0.3004
4 TAUNET_34:3 0.3665
5 TAUNET_34:4 0.1341
6 TAUGATE_34:A 0.0859
*RES
2 inst_128:QN TAUNET_34:1 0.1706
3 TAUNET_34:1 TAUNET_34:2 0.3812
4 TAUNET_34:2 TAUNET_34:3 0.0751
5 TAUNET_34:3 TAUNET_34:4 0.1227
6 TAUNET_34:4 TAUGATE_34:A 0.0294
*END

*D_NET TAUNET_54 2.1109
*CONN
*I inst_29:ZN O
*I TAUGATE_54:A I
*CAP
1 inst_29:ZN 0.3552
2 TAUNET_54:1 0.1840
3 TAUNET_54:2 0.4010
4 TAUNET_54:3 0.3573
5 TAUNET_54:4 0.4559
6 TAUGATE_54:A 0.3575
*RES
2 inst_29:ZN TAUNET_54:1 0.1715
3 TAUNET_54:1 TAUNET_54:2 0.3050
4 TAUNET_54:2 TAUNET_54:3 0.3594
5 TAUNET_54:3 TAUNET_54:4 0.4902
6 TAUNET_54:4 TAUGATE_54:A 0.4716
*END

*D_NET net_0 1.0019
*CONN
*I TAUGATE_52:Z O
*I inst_140:A2 I
*I inst_89:A I
*CAP
1 TAUGATE_52:Z 0.1762
2 net_0:1 0.1660
3 net_0:2 0.2177
4 inst_140:A2 0.2908
5 net_0:3 0.0053
6 inst_89:A 0.1459
*RES
2 TAUGATE_52:Z net_0:1 0.3318
3 net_0:1 net_0:2 0.3308
4 net_0:2 inst_140:A2 0.4080
5 net_0:1 net_0:3 0.0437
6 net_0:3 inst_89:A 0.4598
*END

*D_NET TAUNET_44 1.9374
*CONN
*I inst_22:ZN O
*I TAUGATE_44:A I
*CAP
1 inst_22:ZN 0.2033
2 TAUNET_44:1 0.4574
3 TAUNET_44:2 0.4683
4 TAUNET_44:3 0.1543
5 TAUNET_44:4 0.4873
6 TAUGATE_44:A 0.1669
*RES
2 inst_22:ZN TAUNET_44:1 0.4800
3 TAUNET_44:1 TAUNET_44:2 0.4518
4 TAUNET_44:2 TAUNET_44:3 0.0570
5 TAUNET_44:3 TAUNET_44:4 0.4909
6 TAUNET_44:4 TAUGATE_44:A 0.0572
*END

*D_NET net_3 1.5455
*CONN
*I TAUGATE_16:Z O
*I inst_83:A I
*CAP
1 TAUGATE_16:Z 0.1013
2 net_3:1 0.4210
3 net_3:2 0.2594
4 net_3:3 0.3565
5 inst_83:A 0.4074
*RES
2 TAUGATE_16:Z net_3:1 0.4309
3 net_3:1 net_3:2 0.4474
4 net_3:2 net_3:3 0.2931
5 net_3:3 inst_83:A 0.2848
*END

*D_NET TAUNET_43 1.9018
*CONN
*I inst_34:ZN O
*I TAUGATE_43:A I
*CAP
1 inst_34:ZN 0.3320
2 TAUNET_43:1 0.3663
3 TAUNET_43:2 0.1512
4 TAUNET_43:3 0.1368
5 TAUNET_43:4 0.4493
6 TAUGATE_43:A 0.4663
*RES
2 inst_34:ZN TAUNET_43:1 0.2866
3 TAUNET_43:1 TAUNET_43:2 0.1873
4 TAUNET_43:2 TAUNET_43:3 0.1599
5 TAUNET_43:3 TAUNET_43:4 0.3589
6 TAUNET_43:4 TAUGATE_43:A 0.4697
*END

*D_NET TAUNET_56 0.9872
*CONN
*I inst_104:ZN O
*I TAUGATE_56:A I
*CAP
1 inst_104:ZN 0.0401
2 TAUNET_56:1 0.1883
3 TAUNET_56:2 0.3075
4 TAUNET_56:3 0.0604
5 TAUGATE_56:A 0.3908
*RES
2 inst_104:ZN TAUNET_56:1 0.2921
3 TAUNET_56:1 TAUNET_56:2 0.4162
4 TAUNET_56:2 TAUNET_56:3 0.1285
5 TAUNET_56:3 TAUGATE_56:A 0.0491
*END

*D_NET TAUNET_55 0.9901
*CONN
*I inst_96:ZN O
*I TAUGATE_55:A I
*CAP
1 inst_96:ZN 0.2111
2 TAUNET_55:1 0.1515
3 TAUNET_55:2 0.0492
4 TAUNET_55:3 0.2707
5 TAUNET_55:4 0.0711
6 TAUGATE_55:A 0.2365
*RES
2 inst_96:ZN TAUNET_55:1 0.0021
3 TAUNET_55:1 TAUNET_55:2 0.2080
4 TAUNET_55:2 TAUNET_55:3 0.3529
5 TAUNET_55:3 TAUNET_55:4 0.4886
6 TAUNET_55:4 TAUGATE_55:A 0.3648
*END

*D_NET TAUNET_11 1.5829
*CONN
*I inst_53:ZN O
*I TAUGATE_11:A I
*CAP
1 inst_53:ZN 0.3187
2 TAUNET_11:1 0.0224
3 TAUNET_11:2 0.4026
4 TAUNET_11:3 0.2784
5 TAUNET_11:4 0.1803
6 TAUNET_11:5 0.0882
7 TAUGATE_11:A 0.2924
*RES
2 inst_53:ZN TAUNET_11:1 0.4780
3 TAUNET_11:1 TAUNET_11:2 0.3510
4 TAUNET_11:2 TAUNET_11:3 0.1182
5 TAUNET_11:3 TAUNET_11:4 0.2614
6 TAUNET_11:4 TAUNET_11:5 0.1530
7 TAUNET_11:5 TAUGATE_11:A 0.2582
*END

*D_NET net_112 1.1301
*CONN
*I TAUGATE_10:Z O
*I inst_37:A2 I
*CAP
1 TAUGATE_10:Z 0.0762
2 net_112:1 0.3922
3 net_112:2 0.3950
4 inst_37:A2 0.2666
*RES
2 TAUGATE_10:Z net_112:1 0.4255
3 net_112:1 net_112:2 0.4671
4 net_112:2 inst_37:A2 0.2972
*END

*D_NET net_92 2.1171
*CONN
*I TAUGATE_31:Z O
*I inst_66:A2 I
*CAP
1 TAUGATE_31:Z 0.4880
2 net_92:1 0.3167
3 net_92:2 0.3376
4 net_92:3 0.1073
5 net_92:4 0.3579
6 net_92:5 0.1300
7 inst_66:A2 0.3795
*RES
2 TAUGATE_31:Z net_92:1 0.2362
3 net_92:1 net_92:2 0.1908
4 net_92:2 net_92:3 0.1996
5 net_92:3 net_92:4 0.3123
6 net_92:4 net_92:5 0.1251
7 net_92:5 inst_66:A2 0.0048
*END

*D_NET TAUNET_33 0.7154
*CONN
*I inst_116:ZN O
*I TAUGATE_33:A I
*CAP
1 inst_116:ZN 0.0195
2 TAUNET_33:1 0.3700
3 TAUGATE_33:A 0.3260
*RES
2 inst_116:ZN TAUNET_33:1 0.3466
3 TAUNET_33:1 TAUGATE_33:A 0.4948
*END

*D_NET TAUNET_22 0.7773
*CONN
*I inst_48:ZN O
*I TAUGATE_22:A I
*CAP
1 inst_48:ZN 0.1954
2 TAUNET_22:1 0.4904
3 TAUGATE_22:A 0.0915
*RES
2 inst_48:ZN TAUNET_22:1 0.4619
3 TAUNET_22:1 TAUGATE_22:A 0.1065
*END

*D_NET TAUNET_41 0.7741
*CONN
*I inst_46:ZN O
*I TAUGATE_41:A I
*CAP
1 inst_46:ZN 0.2576
2 TAUNET_41:1 0.2231
3 TAUGATE_41:A 0.2934
*RES
2 inst_46:ZN TAUNET_41:1 0.0661
3 TAUNET_41:1 TAUGATE_41:A 0.0281
*END

*D_NET TAUNET_30 0.7745
*CONN
*I inst_7:ZN O
*I TAUGATE_30:A I
*CAP
1 inst_7:ZN 0.2539
2 TAUNET_30:1 0.1980
3 TAUGATE_30:A 0.3226
*RES
2 inst_7:ZN TAUNET_30:1 0.1282
3 TAUNET_30:1 TAUGATE_30:A 0.2766
*END

*D_NET TAUNET_58 2.4916
*CONN
*I inst_86:ZN O
*I TAUGATE_58:A I
*CAP
1 inst_86:ZN 0.4267
2 TAUNET_58:1 0.3295
3 TAUNET_58:2 0.4724
4 TAUNET_58:3 0.4631
5 TAUNET_58:4 0.0407
6 TAUNET_58:5 0.4130
7 TAUGATE_58:A 0.3462
*RES
2 inst_86:ZN TAUNET_58:1 0.0714
3 TAUNET_58:1 TAUNET_58:2 0.2110
4 TAUNET_58:2 TAUNET_58:3 0.2588
5 TAUNET_58:3 TAUNET_58:4 0.0339
6 TAUNET_58:4 TAUNET_58:5 0.0519
7 TAUNET_58:5 TAUGATE_58:A 0.4874
*END

*D_NET net_43 1.1229
*CONN
*I TAUGATE_22:Z O
*I inst_55:A2 I
*CAP
1 TAUGATE_22:Z 0.2489
2 net_43:1 0.0346
3 net_43:2 0.4333
4 net_43:3 0.0645
5 inst_55:A2 0.3416
*RES
2 TAUGATE_22:Z net_43:1 0.4099
3 net_43:1 net_43:2 0.1540
4 net_43:2 net_43:3 0.0325
5 net_43:3 inst_55:A2 0.0924
*END

*D_NET net_120 1.2932
*CONN
*I TAUGATE_19:Z O
*I inst_45:A1 I
*CAP
1 TAUGATE_19:Z 0.1516
2 net_120:1 0.4228
3 net_120:2 0.1417
4 net_120:3 0.3754
5 inst_45:A1 0.2016
*RES
2 TAUGATE_19:Z net_120:1 0.0068
3 net_120:1 net_120:2 0.2001
4 net_120:2 net_120:3 0.4220
5 net_120:3 inst_45:A1 0.4926
*END

*D_NET A3 1.4952
*CONN
*I TAUGATE_37:Z O
*I inst_68:A I
*CAP
1 TAUGATE_37:Z 0.3810
2 A3:1 0.2042
3 A3:2 0.2030
4 A3:3 0.2656
5 inst_68:A 0.4413
*RES
2 TAUGATE_37:Z A3:1 0.1336
3 A3:1 A3:2 0.4042
4 A3:2 A3:3 0.0451
5 A3:3 inst_68:A 0.2391
*END

*D_NET TAUNET_52 0.9045
*CONN
*I inst_135:QN O
*I TAUGATE_52:A I
*CAP
1 inst_135:QN 0.4146
2 TAUNET_52:1 0.2654
3 TAUGATE_52:A 0.2245
*RES
2 inst_135:QN TAUNET_52:1 0.4797
3 TAUNET_52:1 TAUGATE_52:A 0.0551
*END

*D_NET TAUNET_59 1.5272
*CONN
*I inst_130:QN O
*I TAUGATE_59:A I
*CAP
1 inst_130:QN 0.0973
2 TAUNET_59:1 0.1903
3 TAUNET_59:2 0.2143
4 TAUNET_59:3 0.0701
5 TAUNET_59:4 0.2421
6 TAUNET_59:5 0.4634
7 TAUGATE_59:A 0.2497
*RES
2 inst_130:QN TAUNET_59:1 0.2766
3 TAUNET_59:1 TAUNET_59:2 0.3086
4 TAUNET_59:2 TAUNET_59:3 0.2353
5 TAUNET_59:3 TAUNET_59:4 0.4838
6 TAUNET_59:4 TAUNET_59:5 0.0722
7 TAUNET_59:5 TAUGATE_59:A 0.3539
*END

*D_NET TAUNET_7 1.2346
*CONN
*I TAUGATE_11:Z O
*I TAUGATE_7:A I
*CAP
1 TAUGATE_11:Z 0.0192
2 TAUNET_7:1 0.4054
3 TAUNET_7:2 0.3681
4 TAUGATE_7:A 0.4419
*RES
2 TAUGATE_11:Z TAUNET_7:1 0.1561
3 TAUNET_7:1 TAUNET_7:2 0.1347
4 TAUNET_7:2 TAUGATE_7:A 0.0224
*END

*D_NET TAUNET_48 1.9103
*CONN
*I inst_119:ZN O
*I TAUGATE_48:A I
*CAP
1 inst_119:ZN 0.2244
2 TAUNET_48:1 0.1374
3 TAUNET_48:2 0.1713
4 TAUNET_48:3 0.2153
5 TAUNET_48:4 0.3119
6 TAUNET_48:5 0.4918
7 TAUGATE_48:A 0.3583
*RES
2 inst_119:ZN TAUNET_48:1 0.0251
3 TAUNET_48:1 TAUNET_48:2 0.0071
4 TAUNET_48:2 TAUNET_48:3 0.2242
5 TAUNET_48:3 TAUNET_48:4 0.4834
6 TAUNET_48:4 TAUNET_48:5 0.4589
7 TAUNET_48:5 TAUGATE_48:A 0.0098
*END

*D_NET net_97 3.2689
*CONN
*I TAUGATE_35:Z O
*I inst_67:A2 I
*I inst_41:A1 I
*CAP
1 TAUGATE_35:Z 0.2846
2 net_97:1 0.1185
3 net_97:2 0.4585
4 net_97:3 0.3703
5 net_97:4 0.0365
6 net_97:5 0.4409
7 inst_41:A1 0.4335
8 net_97:6 0.4514
9 net_97:7 0.1489
10 net_97:8 0.3442
11 inst_67:A2 0.1815
*RES
2 TAUGATE_35:Z net_97:1 0.3158
3 net_97:1 net_97:2 0.2513
4 net_97:2 net_97:3 0.4798
5 net_97:3 net_97:4 0.1640
6 net_97:4 net_97:5 0.1778
7 net_97:5 inst_41:A1 0.3155
8 net_97:3 net_97:6 0.2112
9 net_97:6 net_97:7 0.3238
10 net_97:7 net_97:8 0.1536
11 net_97:8 inst_67:A2 0.2744
*END

*D_NET TAUNET_42 0.2935
*CONN
*I inst_76:ZN O
*I TAUGATE_42:A I
*CAP
1 inst_76:ZN 0.0682
2 TAUNET_42:1 0.2235
3 TAUGATE_42:A 0.0018
*RES
2 inst_76:ZN TAUNET_42:1 0.2665
3 TAUNET_42:1 TAUGATE_42:A 0.4580
*END

*D_NET net_38 3.2083
*CONN
*I TAUGATE_57:Z O
*I inst_47:A1 I
*I inst_72:B I
*I inst_112:A I
*CAP
1 TAUGATE_57:Z 0.4660
2 net_38:1 0.2711
3 net_38:2 0.1177
4 net_38:3 0.1130
5 net_38:4 0.0719
6 inst_112:A 0.2913
7 net_38:5 0.3792
8 net_38:6 0.3945