*SPEF "IEEE 1481-1998"
*DESIGN "s349"
*DATE "Tue Nov 25 16:55:05 2014"
*VENDOR "TAU 2015 Contest"
*PROGRAM "Benchmark Parasitic Generator"
*VERSION "0.0"
*DESIGN_FLOW "NETLIST_TYPE_VERILOG"
*DIVIDER /
*DELIMITER :
*BUS_DELIMITER [ ]
*T_UNIT 1 PS
*C_UNIT 1 FF
*R_UNIT 1 KOHM
*L_UNIT 1 UH

*D_NET net_166 0.8670
*CONN
*I inst_177:Z O
*I inst_178:A I
*CAP
1 inst_177:Z 0.0716
2 net_166:1 0.1922
3 net_166:2 0.2805
4 net_166:3 0.1322
5 inst_178:A 0.1905
*RES
2 inst_177:Z net_166:1 0.4017
3 net_166:1 net_166:2 0.4680
4 net_166:2 net_166:3 0.2976
5 net_166:3 inst_178:A 0.2331
*END

*D_NET net_107 0.2722
*CONN
*I inst_66:ZN O
*I inst_26:A3 I
*CAP
1 inst_66:ZN 0.0166
2 inst_26:A3 0.0166
3 net_107:1 0.0208
4 net_107:2 0.0208
5 net_107:3 0.0809
6 net_107:4 0.0809
7 net_107:5 0.0178
8 net_107:6 0.0178
*RES
2 inst_66:ZN net_107:6 0.0050
3 net_107:1 inst_26:A3 0.0050
4 net_107:1 net_107:2 0.0010
5 net_107:3 net_107:2 0.0050
6 net_107:4 net_107:3 0.0047
7 net_107:5 net_107:4 0.0050
8 net_107:5 net_107:6 0.0010
*END

*D_NET net_47 0.1883
*CONN
*I inst_49:ZN O
*I inst_34:A1 I
*CAP
1 inst_49:ZN 0.0166
2 inst_34:A1 0.0339
3 net_47:1 0.0422
4 net_47:2 0.0152
5 net_47:3 0.0326
6 net_47:4 0.0326
7 net_47:5 0.0152
*RES
2 inst_49:ZN net_47:5 0.0050
3 inst_34:A1 net_47:1 0.0062
4 net_47:2 net_47:1 0.0050
5 net_47:3 net_47:2 0.0050
6 net_47:3 net_47:4 0.0020
7 net_47:5 net_47:4 0.0050
*END

*D_NET net_179 1.3358
*CONN
*I inst_190:Z O
*I inst_125:CK I
*CAP
1 inst_190:Z 0.3943
2 net_179:1 0.1955
3 net_179:2 0.1868
4 net_179:3 0.4889
5 inst_125:CK 0.0703
*RES
2 inst_190:Z net_179:1 0.3298
3 net_179:1 net_179:2 0.4131
4 net_179:2 net_179:3 0.3310
5 net_179:3 inst_125:CK 0.2621
*END

*D_NET net_176 0.9833
*CONN
*I inst_187:Z O
*I inst_188:A I
*CAP
1 inst_187:Z 0.1808
2 net_176:1 0.3990
3 inst_188:A 0.4035
*RES
2 inst_187:Z net_176:1 0.0219
3 net_176:1 inst_188:A 0.0830
*END

*D_NET net_159 1.1222
*CONN
*I inst_170:Z O
*I inst_131:CK I
*CAP
1 inst_170:Z 0.4019
2 net_159:1 0.2503
3 inst_131:CK 0.4700
*RES
2 inst_170:Z net_159:1 0.3789
3 net_159:1 inst_131:CK 0.3545
*END

*D_NET net_61 0.2074
*CONN
*I inst_56:ZN O
*I inst_24:A1 I
*CAP
1 inst_56:ZN 0.0166
2 inst_24:A1 0.0166
3 net_61:1 0.0267
4 net_61:2 0.0229
5 net_61:3 0.0447
6 net_61:4 0.0447
7 net_61:5 0.0176
8 net_61:6 0.0176
*RES
2 inst_56:ZN net_61:6 0.0050
3 net_61:1 inst_24:A1 0.0050
4 net_61:2 net_61:1 0.0010
5 net_61:3 net_61:2 0.0050
6 net_61:3 net_61:4 0.0020
7 net_61:5 net_61:4 0.0050
8 net_61:6 net_61:5 0.0010
*END

*D_NET net_137 2.5362
*CONN
*I inst_148:Z O
*I inst_137:CK I
*I inst_172:A I
*CAP
1 inst_148:Z 0.1267
2 net_137:1 0.2434
3 net_137:2 0.3726
4 net_137:3 0.2980
5 net_137:4 0.2454
6 inst_172:A 0.4670
7 net_137:5 0.3699
8 inst_137:CK 0.4131
*RES
2 inst_148:Z net_137:1 0.1921
3 net_137:1 net_137:2 0.1376
4 net_137:2 net_137:3 0.4443
5 net_137:3 net_137:4 0.1288
6 net_137:4 inst_172:A 0.3022
7 net_137:1 net_137:5 0.4004
8 net_137:5 inst_137:CK 0.4814
*END

*D_NET net_132 1.6808
*CONN
*I inst_143:Z O
*I inst_133:CK I
*I inst_171:A I
*CAP
1 inst_143:Z 0.3915
2 net_132:1 0.3089
3 inst_133:CK 0.0253
4 net_132:2 0.3147
5 net_132:3 0.2761
6 inst_171:A 0.3643
*RES
2 inst_143:Z net_132:1 0.3105
3 net_132:1 inst_133:CK 0.1881
4 net_132:1 net_132:2 0.2288
5 net_132:2 net_132:3 0.0666
6 net_132:3 inst_171:A 0.3854
*END

*D_NET net_54 1.0702
*CONN
*I inst_89:ZN O
*I inst_111:A I
*I inst_50:A1 I
*I inst_57:A1 I
*CAP
1 inst_89:ZN 0.0166
2 inst_111:A 0.0166
3 inst_50:A1 0.0166
4 inst_57:A1 0.0166
5 net_54:1 0.0161
6 net_54:2 0.0161
7 net_54:3 0.1243
8 net_54:4 0.2268
9 net_54:5 0.1098
10 net_54:6 0.1168
11 net_54:7 0.1168
12 net_54:8 0.0671
13 net_54:9 0.1122
14 net_54:10 0.0523
15 net_54:11 0.0152
16 net_54:12 0.0152
17 net_54:13 0.0152
*RES
2 net_54:1 inst_111:A 0.0050
3 net_54:2 net_54:1 0.0010
4 net_54:3 net_54:2 0.0050
5 net_54:4 net_54:3 0.0095
6 net_54:4 net_54:12 0.0050
7 net_54:5 net_54:4 0.0109
8 net_54:5 net_54:6 0.0010
9 net_54:7 net_54:6 0.0129
10 net_54:8 net_54:7 0.0010
11 net_54:9 net_54:8 0.0061
12 net_54:10 net_54:9 0.0041
13 net_54:10 net_54:11 0.0050
14 net_54:11 inst_50:A1 0.0050
15 net_54:12 inst_57:A1 0.0050
16 net_54:13 inst_89:ZN 0.0050
17 net_54:13 net_54:9 0.0050
*END

*D_NET net_105 0.4424
*CONN
*I inst_37:ZN O
*I inst_38:A1 I
*CAP
1 inst_37:ZN 0.0080
2 inst_38:A1 0.0673
3 net_105:1 0.0205
4 net_105:2 0.0284
5 net_105:3 0.0284
6 net_105:4 0.0896
7 net_105:5 0.0896
8 net_105:6 0.0176
9 net_105:7 0.0176
10 net_105:8 0.0756
*RES
2 inst_37:ZN net_105:1 0.0010
3 net_105:2 net_105:1 0.0050
4 net_105:2 net_105:3 0.0015
5 net_105:4 net_105:3 0.0050
6 net_105:4 net_105:5 0.0095
7 net_105:6 net_105:5 0.0050
8 net_105:6 net_105:7 0.0010
9 net_105:8 inst_38:A1 0.0062
10 net_105:8 net_105:7 0.0050
*END

*D_NET net_62 0.3608
*CONN
*I inst_57:ZN O
*I inst_23:A1 I
*CAP
1 inst_57:ZN 0.0166
2 inst_23:A1 0.0166
3 net_62:1 0.0210
4 net_62:2 0.0210
5 net_62:3 0.0892
6 net_62:4 0.0892
7 net_62:5 0.0536
8 net_62:6 0.0536
*RES
2 inst_23:A1 net_62:6 0.0050
3 net_62:1 inst_57:ZN 0.0050
4 net_62:1 net_62:2 0.0010
5 net_62:3 net_62:2 0.0050
6 net_62:4 net_62:3 0.0081
7 net_62:5 net_62:4 0.0050
8 net_62:5 net_62:6 0.0040
*END

*D_NET P3 0.5001
*CONN
*I inst_113:ZN O
*P P3 O
*CAP
1 P3 0.0075
2 inst_113:ZN 0.0166
3 P3:1 0.0179
4 P3:2 0.0179
5 P3:3 0.1983
6 P3:4 0.2030
7 P3:5 0.0198
8 P3:6 0.0189
*RES
2 P3:1 inst_113:ZN 0.0050
3 P3:2 P3:1 0.0010
4 P3:3 P3:2 0.0050
5 P3:3 P3:4 0.0210
6 P3:4 P3:5 0.0010
7 P3:6 P3 0.0010
8 P3:6 P3:5 0.0050
*END

*D_NET net_6 0.2381
*CONN
*I inst_125:QN O
*I inst_109:A I
*CAP
1 inst_109:A 0.0166
2 inst_125:QN 0.0166
3 net_6:1 0.0152
4 net_6:2 0.0273
5 net_6:3 0.0273
6 net_6:4 0.0675
7 net_6:5 0.0675
*RES
2 inst_109:A net_6:5 0.0050
3 net_6:1 inst_125:QN 0.0050
4 net_6:2 net_6:1 0.0050
5 net_6:3 net_6:2 0.0020
6 net_6:4 net_6:3 0.0050
7 net_6:5 net_6:4 0.0045
*END

*D_NET net_129 0.2399
*CONN
*I inst_32:ZN O
*I inst_14:A1 I
*I inst_36:A2 I
*CAP
1 inst_32:ZN 0.0238
2 inst_14:A1 0.0166
3 inst_36:A2 0.0166
4 net_129:1 0.0246
5 net_129:2 0.0269
6 net_129:3 0.0175
7 net_129:4 0.0155
8 net_129:5 0.0152
9 net_129:6 0.0340
10 net_129:7 0.0340
11 net_129:8 0.0152
*RES
2 inst_32:ZN net_129:8 0.0050
3 inst_32:ZN net_129:4 0.0010
4 net_129:1 inst_14:A1 0.0050
5 net_129:2 net_129:1 0.0020
6 net_129:3 net_129:2 0.0010
7 net_129:4 net_129:3 0.0050
8 net_129:5 inst_36:A2 0.0050
9 net_129:6 net_129:5 0.0050
10 net_129:6 net_129:7 0.0027
11 net_129:8 net_129:7 0.0050
*END

*D_NET net_119 0.2819
*CONN
*I inst_34:ZN O
*I inst_36:A1 I
*CAP
1 inst_34:ZN 0.0166
2 inst_36:A1 0.0166
3 net_119:1 0.0163
4 net_119:2 0.0163
5 net_119:3 0.0904
6 net_119:4 0.0904
7 net_119:5 0.0177
8 net_119:6 0.0177
*RES
2 inst_36:A1 net_119:6 0.0050
3 net_119:1 inst_34:ZN 0.0050
4 net_119:2 net_119:1 0.0010
5 net_119:3 net_119:2 0.0050
6 net_119:3 net_119:4 0.0109
7 net_119:5 net_119:4 0.0050
8 net_119:5 net_119:6 0.0010
*END

*D_NET net_98 0.0308
*CONN
*I inst_67:ZN O
*I inst_25:A3 I
*CAP
1 inst_67:ZN 0.0154
2 inst_25:A3 0.0154
*RES
2 inst_25:A3 inst_67:ZN 0.0020
*END

*D_NET net_23 0.5052
*CONN
*I inst_95:ZN O
*I inst_97:A I
*I inst_42:A2 I
*CAP
1 inst_95:ZN 0.0166
2 inst_97:A 0.0166
3 inst_42:A2 0.0166
4 net_23:1 0.0356
5 net_23:2 0.0378
6 net_23:3 0.0343
7 net_23:4 0.0359
8 net_23:5 0.0489
9 net_23:6 0.0955
10 net_23:7 0.0240
11 net_23:8 0.0240
12 net_23:9 0.0307
13 net_23:10 0.0345
14 net_23:11 0.0542
*RES
2 net_23:1 inst_97:A 0.0050
3 net_23:2 net_23:1 0.0025
4 net_23:3 net_23:2 0.0010
5 net_23:4 net_23:3 0.0030
6 net_23:5 net_23:4 0.0050
7 net_23:6 net_23:5 0.0041
8 net_23:6 net_23:7 0.0050
9 net_23:8 inst_42:A2 0.0050
10 net_23:8 net_23:7 0.0010
11 net_23:9 inst_95:ZN 0.0050
12 net_23:10 net_23:9 0.0035
13 net_23:11 net_23:6 0.0041
14 net_23:11 net_23:10 0.0050
*END

*D_NET P5 1.1096
*CONN
*I inst_92:ZN O
*P P5 O
*I inst_115:A I
*I inst_19:A1 I
*CAP
1 P5 0.0075
2 inst_92:ZN 0.0166
3 inst_115:A 0.0166
4 inst_19:A1 0.0166
5 P5:1 0.0161
6 P5:2 0.0161
7 P5:3 0.2907
8 P5:4 0.2357
9 P5:5 0.0792
10 P5:6 0.0792
11 P5:7 0.0260
12 P5:8 0.0275
13 P5:9 0.0167
14 P5:10 0.0189
15 P5:11 0.0178
16 P5:12 0.0178
17 P5:13 0.0348
18 P5:14 0.0628
19 P5:15 0.0353
20 P5:16 0.0622
21 P5:17 0.0152
*RES
2 P5:1 inst_115:A 0.0050
3 P5:2 P5:1 0.0010
4 P5:3 P5:2 0.0050
5 P5:3 P5:4 0.0210
6 P5:4 P5:5 0.0050
7 P5:5 P5:6 0.0025
8 P5:6 P5:7 0.0050
9 P5:7 P5:8 0.0020
10 P5:8 P5:9 0.0010
11 P5:9 P5:10 0.0050
12 P5:10 P5 0.0010
13 P5:11 inst_19:A1 0.0050
14 P5:12 P5:11 0.0010
15 P5:13 P5:12 0.0050
16 P5:13 P5:14 0.0020
17 P5:14 P5:15 0.0041
18 P5:15 P5:16 0.0010
19 P5:16 P5:3 0.0047
20 P5:17 inst_92:ZN 0.0050
21 P5:17 P5:14 0.0050
*END

*D_NET net_117 0.0152
*CONN
*I inst_120:ZN O
*I inst_20:A3 I
*CAP
1 inst_120:ZN 0.0076
2 inst_20:A3 0.0076
*RES
2 inst_120:ZN inst_20:A3 0.0010
*END

*D_NET net_12 0.2189
*CONN
*I inst_132:QN O
*I inst_84:A I
*CAP
1 inst_84:A 0.0166
2 inst_132:QN 0.0166
3 net_12:1 0.0162
4 net_12:2 0.0162
5 net_12:3 0.0383
6 net_12:4 0.0383
7 net_12:5 0.0384
8 net_12:6 0.0384
*RES
2 inst_84:A net_12:6 0.0050
3 net_12:1 inst_132:QN 0.0050
4 net_12:2 net_12:1 0.0010
5 net_12:3 net_12:2 0.0050
6 net_12:3 net_12:4 0.0027
7 net_12:5 net_12:4 0.0050
8 net_12:6 net_12:5 0.0025
*END

*D_NET B1 1.9619
*CONN
*P B1 I
*I inst_4:A1 I
*CAP
1 B1 0.0010
2 inst_4:A1 0.0166
3 B1:1 0.0124
4 B1:2 0.0392
5 B1:3 0.0392
6 B1:4 0.0336
7 B1:5 0.0298
8 B1:6 0.1130
9 B1:7 0.1130
10 B1:8 0.5686
11 B1:9 0.5686
12 B1:10 0.1323
13 B1:11 0.1323
14 B1:12 0.0812
15 B1:13 0.0812
*RES
2 inst_4:A1 B1:13 0.0050
3 B1:1 B1 0.0010
4 B1:2 B1:1 0.0050
5 B1:3 B1:2 0.0046
6 B1:4 B1:3 0.0050
7 B1:5 B1:4 0.0024
8 B1:6 B1:5 0.0050
9 B1:7 B1:6 0.0116
10 B1:8 B1:7 0.0050
11 B1:9 B1:8 0.0185
12 B1:10 B1:9 0.0050
13 B1:11 B1:10 0.0121
14 B1:12 B1:11 0.0050
15 B1:13 B1:12 0.0080
*END

*D_NET net_151 1.2459
*CONN
*I inst_162:Z O
*I inst_163:A I
*CAP
1 inst_162:Z 0.3740
2 net_151:1 0.0209
3 net_151:2 0.4380
4 inst_163:A 0.4130
*RES
2 inst_162:Z net_151:1 0.4990
3 net_151:1 net_151:2 0.2134
4 net_151:2 inst_163:A 0.1115
*END

*D_NET net_74 0.2039
*CONN
*I inst_70:Z O
*I inst_128:D I
*CAP
1 inst_70:Z 0.0166
2 inst_128:D 0.0166
3 net_74:1 0.0152
4 net_74:2 0.0260
5 net_74:3 0.0260
6 net_74:4 0.0498
7 net_74:5 0.0536
*RES
2 inst_128:D net_74:5 0.0050
3 net_74:1 inst_70:Z 0.0050
4 net_74:2 net_74:1 0.0050
5 net_74:2 net_74:3 0.0020
6 net_74:4 net_74:3 0.0050
7 net_74:4 net_74:5 0.0040
*END

*D_NET net_53 0.3507
*CONN
*I inst_44:ZN O
*I inst_13:A2 I
*I inst_51:A2 I
*CAP
1 inst_44:ZN 0.0166
2 inst_13:A2 0.0166
3 inst_51:A2 0.0166
4 net_53:1 0.0152
5 net_53:2 0.0187
6 net_53:3 0.0145
7 net_53:4 0.0186
8 net_53:5 0.0467
9 net_53:6 0.0173
10 net_53:7 0.0173
11 net_53:8 0.0548
12 net_53:9 0.0548
13 net_53:10 0.0429
*RES
2 net_53:1 inst_13:A2 0.0050
3 net_53:2 net_53:1 0.0050
4 net_53:3 net_53:2 0.0010
5 net_53:4 net_53:3 0.0010
6 net_53:5 inst_51:A2 0.0050
7 net_53:5 net_53:4 0.0050
8 net_53:6 inst_44:ZN 0.0050
9 net_53:6 net_53:7 0.0010
10 net_53:8 net_53:7 0.0050
11 net_53:8 net_53:9 0.0047
12 net_53:10 net_53:5 0.0040
13 net_53:10 net_53:9 0.0050
*END

*D_NET net_93 0.3279
*CONN
*I inst_21:ZN O
*I inst_23:A3 I
*CAP
1 inst_21:ZN 0.0166
2 inst_23:A3 0.0166
3 net_93:1 0.0205
4 net_93:2 0.0205
5 net_93:3 0.0386
6 net_93:4 0.0386
7 net_93:5 0.0882
8 net_93:6 0.0882
*RES
2 inst_23:A3 net_93:6 0.0050
3 net_93:1 inst_21:ZN 0.0050
4 net_93:2 net_93:1 0.0010
5 net_93:3 net_93:2 0.0050
6 net_93:4 net_93:3 0.0020
7 net_93:5 net_93:4 0.0050
8 net_93:6 net_93:5 0.0065
*END

*D_NET net_168 0.5511
*CONN
*I inst_179:Z O
*I inst_180:A I
*CAP
1 inst_179:Z 0.1182
2 net_168:1 0.0608
3 inst_180:A 0.3721
*RES
2 inst_179:Z net_168:1 0.4648
3 net_168:1 inst_180:A 0.2376
*END

*D_NET net_135 0.8353
*CONN
*I inst_146:Z O
*I inst_147:A I
*CAP
1 inst_146:Z 0.3081
2 net_135:1 0.0264
3 net_135:2 0.2502
4 inst_147:A 0.2506
*RES
2 inst_146:Z net_135:1 0.4486
3 net_135:1 net_135:2 0.0641
4 net_135:2 inst_147:A 0.0138
*END

*D_NET net_130 2.6173
*CONN
*I inst_141:Z O
*I inst_142:A I
*I inst_149:A I
*CAP
1 inst_141:Z 0.3621
2 net_130:1 0.3490
3 net_130:2 0.4751
4 inst_142:A 0.3195
5 net_130:3 0.1411
6 net_130:4 0.2452
7 net_130:5 0.2723
8 net_130:6 0.2079
9 inst_149:A 0.2449
*RES
2 inst_141:Z net_130:1 0.4748
3 net_130:1 net_130:2 0.2505
4 net_130:2 inst_142:A 0.2036
5 net_130:1 net_130:3 0.0406
6 net_130:3 net_130:4 0.0917
7 net_130:4 net_130:5 0.0078
8 net_130:5 net_130:6 0.0227
9 net_130:6 inst_149:A 0.0264
*END

*D_NET net_147 1.0395
*CONN
*I inst_158:Z O
*I inst_159:A I
*CAP
1 inst_158:Z 0.0715
2 net_147:1 0.1861
3 net_147:2 0.4367
4 inst_159:A 0.3452
*RES
2 inst_158:Z net_147:1 0.0313
3 net_147:1 net_147:2 0.1217
4 net_147:2 inst_159:A 0.0111
*END

*D_NET net_127 0.2266
*CONN
*I inst_105:ZN O
*I inst_22:A2 I
*CAP
1 inst_105:ZN 0.0166
2 inst_22:A2 0.0166
3 net_127:1 0.0544
4 net_127:2 0.0544
5 net_127:3 0.0347
6 net_127:4 0.0347
7 net_127:5 0.0152
*RES
2 inst_22:A2 net_127:5 0.0050
3 net_127:1 inst_105:ZN 0.0050
4 net_127:1 net_127:2 0.0045
5 net_127:3 net_127:2 0.0050
6 net_127:4 net_127:3 0.0027
7 net_127:5 net_127:4 0.0050
*END

*D_NET net_14 0.3006
*CONN
*I inst_91:ZN O
*I inst_9:A1 I
*CAP
1 inst_91:ZN 0.0166
2 inst_9:A1 0.0166
3 net_14:1 0.0242
4 net_14:2 0.0242
5 net_14:3 0.0492
6 net_14:4 0.0492
7 net_14:5 0.0603
8 net_14:6 0.0603
*RES
2 inst_9:A1 net_14:6 0.0050
3 net_14:1 inst_91:ZN 0.0050
4 net_14:1 net_14:2 0.0010
5 net_14:3 net_14:2 0.0050
6 net_14:4 net_14:3 0.0027
7 net_14:5 net_14:4 0.0050
8 net_14:5 net_14:6 0.0040
*END

*D_NET P1 0.8836
*CONN
*I inst_114:ZN O
*P P1 O
*CAP
1 P1 0.0012
2 inst_114:ZN 0.0099
3 P1:1 0.0182
4 P1:2 0.2171
5 P1:3 0.2209
6 P1:4 0.2019
7 P1:5 0.2019
8 P1:6 0.0126
*RES
2 P1 P1:6 0.0010
3 inst_114:ZN P1:1 0.0010
4 P1:2 P1:1 0.0050
5 P1:3 P1:2 0.0185
6 P1:4 P1:3 0.0050
7 P1:4 P1:5 0.0262
8 P1:6 P1:5 0.0050
*END

*D_NET net_113 0.6976
*CONN
*I inst_107:ZN O
*I inst_6:A2 I
*I inst_7:A2 I
*I inst_20:A1 I
*CAP
1 inst_107:ZN 0.0332
2 inst_6:A2 0.0166
3 inst_7:A2 0.0166
4 inst_20:A1 0.0166
5 net_113:1 0.0906
6 net_113:2 0.0498
7 net_113:3 0.1342
8 net_113:4 0.1342
9 net_113:5 0.0182
10 net_113:6 0.0182
11 net_113:7 0.0417
12 net_113:8 0.0440
13 net_113:9 0.0150
14 net_113:10 0.0165
15 net_113:11 0.0522
*RES
2 inst_107:ZN net_113:10 0.0050
3 net_113:1 inst_6:A2 0.0050
4 net_113:1 net_113:2 0.0030
5 net_113:2 net_113:3 0.0050
6 net_113:3 net_113:4 0.0075
7 net_113:4 net_113:5 0.0050
8 net_113:5 net_113:6 0.0010
9 net_113:6 inst_20:A1 0.0050
10 net_113:7 inst_7:A2 0.0050
11 net_113:7 net_113:8 0.0030
12 net_113:8 net_113:9 0.0010
13 net_113:9 net_113:10 0.0010
14 net_113:11 inst_107:ZN 0.0050
15 net_113:11 net_113:1 0.0040
*END

*D_NET net_26 0.0152
*CONN
*I inst_117:ZN O
*I inst_11:A1 I
*CAP
1 inst_117:ZN 0.0076
2 inst_11:A1 0.0076
*RES
2 inst_117:ZN inst_11:A1 0.0010
*END

*D_NET net_76 0.0415
*CONN
*I inst_61:ZN O
*I inst_63:A1 I
*CAP
1 inst_61:ZN 0.0010
2 inst_63:A1 0.0010
3 net_76:1 0.0198
4 net_76:2 0.0198
*RES
2 inst_61:ZN net_76:2 0.0050
3 net_76:1 inst_63:A1 0.0050
4 net_76:2 net_76:1 0.0014
*END

*D_NET blif_clk_net 2.0100
*CONN
*P blif_clk_net I
*I inst_141:A I
*I inst_179:A I
*CAP
1 blif_clk_net 0.3290
2 blif_clk_net:1 0.4236
3 blif_clk_net:2 0.3328
4 inst_179:A 0.1906
5 blif_clk_net:3 0.4963
6 inst_141:A 0.2377
*RES
2 blif_clk_net blif_clk_net:1 0.5003
3 blif_clk_net:1 blif_clk_net:2 0.4347
4 blif_clk_net:2 inst_179:A 0.3044
5 blif_clk_net:1 blif_clk_net:3 0.2571
6 blif_clk_net:3 inst_141:A 0.3610
*END

*D_NET net_101 0.4379
*CONN
*I inst_25:ZN O
*I inst_137:D I
*CAP
1 inst_25:ZN 0.0871
2 inst_137:D 0.0072
3 net_101:1 0.0954
4 net_101:2 0.1164
5 net_101:3 0.1164
6 net_101:4 0.0155
*RES
2 inst_137:D net_101:4 0.0010
3 net_101:1 inst_25:ZN 0.0113
4 net_101:2 net_101:1 0.0050
5 net_101:2 net_101:3 0.0135
6 net_101:4 net_101:3 0.0050
*END

*D_NET net_32 0.1953
*CONN
*I inst_98:ZN O
*I inst_100:A I
*I inst_49:A1 I
*CAP
1 inst_98:ZN 0.0166
2 inst_100:A 0.0166
3 inst_49:A1 0.0166
4 net_32:1 0.0152
5 net_32:2 0.0370
6 net_32:3 0.0221
7 net_32:4 0.0187
8 net_32:5 0.0152
9 net_32:6 0.0152
10 net_32:7 0.0221
*RES
2 net_32:1 inst_49:A1 0.0050
3 net_32:2 net_32:1 0.0050
4 net_32:2 net_32:3 0.0014
5 net_32:4 net_32:3 0.0010
6 net_32:4 net_32:5 0.0050
7 net_32:5 inst_100:A 0.0050
8 net_32:6 inst_98:ZN 0.0050
9 net_32:7 net_32:2 0.0014
10 net_32:7 net_32:6 0.0050
*END

*D_NET net_111 0.0292
*CONN
*I inst_121:ZN O
*I inst_39:A2 I
*CAP
1 inst_121:ZN 0.0146
2 inst_39:A2 0.0146
*RES
2 inst_121:ZN inst_39:A2 0.0021
*END

*D_NET net_90 0.1174
*CONN
*I inst_6:ZN O
*I inst_64:A1 I
*CAP
1 inst_6:ZN 0.0507
2 inst_64:A1 0.0080
3 net_90:1 0.0587
*RES
2 inst_6:ZN net_90:1 0.0113
3 net_90:1 inst_64:A1 0.0010
*END

*D_NET net_40 0.1220
*CONN
*I inst_2:ZN O
*I inst_54:A1 I
*CAP
1 inst_2:ZN 0.0166
2 inst_54:A1 0.0166
3 net_40:1 0.0152
4 net_40:2 0.0292
5 net_40:3 0.0292
6 net_40:4 0.0152
*RES
2 inst_2:ZN net_40:4 0.0050
3 net_40:1 inst_54:A1 0.0050
4 net_40:2 net_40:1 0.0050
5 net_40:3 net_40:2 0.0014
6 net_40:4 net_40:3 0.0050
*END

*D_NET net_100 1.4690
*CONN
*I inst_86:ZN O
*I inst_23:A2 I
*I inst_24:A2 I
*I inst_25:A2 I
*I inst_27:A2 I
*CAP
1 inst_86:ZN 0.0612
2 inst_23:A2 0.0860
3 inst_24:A2 0.0166
4 inst_25:A2 0.0166
5 inst_27:A2 0.0143
6 net_100:1 0.0420
7 net_100:2 0.0420
8 net_100:3 0.0771
9 net_100:4 0.0201
10 net_100:5 0.0209
11 net_100:6 0.1591
12 net_100:7 0.1534
13 net_100:8 0.0943
14 net_100:9 0.0562
15 net_100:10 0.1253
16 net_100:11 0.1904
17 net_100:12 0.1904
18 net_100:13 0.0227
19 net_100:14 0.0805
*RES
2 inst_86:ZN net_100:3 0.0083
3 inst_27:A2 net_100:13 0.0021
4 net_100:1 inst_25:A2 0.0050
5 net_100:2 net_100:1 0.0030
6 net_100:3 net_100:2 0.0050
7 net_100:3 net_100:4 0.0010
8 net_100:4 net_100:5 0.0050
9 net_100:6 net_100:5 0.0010
10 net_100:6 net_100:12 0.0050
11 net_100:7 net_100:6 0.0160
12 net_100:7 net_100:8 0.0050
13 net_100:8 inst_23:A2 0.0124
14 net_100:9 inst_24:A2 0.0050
15 net_100:9 net_100:10 0.0060
16 net_100:10 net_100:14 0.0105
17 net_100:11 net_100:10 0.0050
18 net_100:12 net_100:11 0.0176
19 net_100:14 net_100:13 0.0050
*END

*D_NET net_85 0.1071
*CONN
*I inst_15:ZN O
*I inst_129:D I
*CAP
1 inst_15:ZN 0.0076
2 inst_129:D 0.0166
3 net_85:1 0.0335
4 net_85:2 0.0335
5 net_85:3 0.0159
*RES
2 net_85:1 inst_129:D 0.0050
3 net_85:1 net_85:2 0.0040
4 net_85:3 inst_15:ZN 0.0010
5 net_85:3 net_85:2 0.0050
*END

*D_NET net_69 0.1135
*CONN
*I inst_60:ZN O
*I inst_74:B I
*CAP
1 inst_60:ZN 0.0166
2 inst_74:B 0.0166
3 net_69:1 0.0401
4 net_69:2 0.0401
*RES
2 inst_60:ZN net_69:2 0.0050
3 net_69:1 inst_74:B 0.0050
4 net_69:1 net_69:2 0.0030
*END

*D_NET net_124 0.1585
*CONN
*I inst_77:ZN O
*I inst_74:S I
*CAP
1 inst_77:ZN 0.0166
2 inst_74:S 0.0166
3 net_124:1 0.0271
4 net_124:2 0.0293
5 net_124:3 0.0356
6 net_124:4 0.0333
*RES
2 inst_74:S net_124:4 0.0050
3 net_124:1 inst_77:ZN 0.0050
4 net_124:1 net_124:2 0.0015
5 net_124:2 net_124:3 0.0010
6 net_124:3 net_124:4 0.0030
*END

*D_NET net_161 0.7629
*CONN
*I inst_172:Z O
*I inst_173:A I
*CAP
1 inst_172:Z 0.1253
2 net_161:1 0.2343
3 net_161:2 0.1106
4 net_161:3 0.0283
5 inst_173:A 0.2644
*RES
2 inst_172:Z net_161:1 0.3395
3 net_161:1 net_161:2 0.4160
4 net_161:2 net_161:3 0.1311
5 net_161:3 inst_173:A 0.1702
*END

*D_NET net_141 0.6797
*CONN
*I inst_152:Z O
*I inst_153:A I
*CAP
1 inst_152:Z 0.0169
2 net_141:1 0.3418
3 net_141:2 0.0277
4 net_141:3 0.2232
5 inst_153:A 0.0700
*RES
2 inst_152:Z net_141:1 0.3825
3 net_141:1 net_141:2 0.4916
4 net_141:2 net_141:3 0.0258
5 net_141:3 inst_153:A 0.0722
*END

*D_NET net_160 1.1637
*CONN
*I inst_171:Z O
*I inst_130:CK I
*CAP
1 inst_171:Z 0.3515
2 net_160:1 0.4269
3 net_160:2 0.0493
4 net_160:3 0.0341
5 inst_130:CK 0.3020
*RES
2 inst_171:Z net_160:1 0.3389
3 net_160:1 net_160:2 0.4000
4 net_160:2 net_160:3 0.0188
5 net_160:3 inst_130:CK 0.4709
*END

*D_NET net_83 0.3138
*CONN
*I inst_72:Z O
*I inst_130:D I
*CAP
1 inst_72:Z 0.0166
2 inst_130:D 0.0143
3 net_83:1 0.0152
4 net_83:2 0.1064
5 net_83:3 0.1064
6 net_83:4 0.0161
7 net_83:5 0.0161
8 net_83:6 0.0226
*RES
2 inst_130:D net_83:6 0.0021
3 net_83:1 inst_72:Z 0.0050
4 net_83:2 net_83:1 0.0050
5 net_83:3 net_83:2 0.0095
6 net_83:4 net_83:3 0.0050
7 net_83:4 net_83:5 0.0010
8 net_83:6 net_83:5 0.0050
*END

*D_NET net_115 0.1208
*CONN
*I inst_64:ZN O
*I inst_22:A1 I
*CAP
1 inst_64:ZN 0.0166
2 inst_22:A1 0.0166
3 net_115:1 0.0438
4 net_115:2 0.0438
*RES
2 inst_64:ZN net_115:2 0.0050
3 net_115:1 inst_22:A1 0.0050
4 net_115:1 net_115:2 0.0050
*END

*D_NET B3 0.9113
*CONN
*P B3 I
*I inst_2:A1 I
*CAP
1 B3 0.0130
2 inst_2:A1 0.0166
3 B3:1 0.0206
4 B3:2 0.0172
5 B3:3 0.4060
6 B3:4 0.4040
7 B3:5 0.0169
8 B3:6 0.0169
*RES
2 B3 B3:1 0.0010
3 inst_2:A1 B3:6 0.0050
4 B3:2 B3:1 0.0050
5 B3:2 B3:3 0.0010
6 B3:3 B3:4 0.0346
7 B3:5 B3:4 0.0050
8 B3:5 B3:6 0.0010
*END

*D_NET net_4 0.1212
*CONN
*I inst_126:QN O
*I inst_85:A I
*CAP
1 inst_85:A 0.0166
2 inst_126:QN 0.0166
3 net_4:1 0.0152
4 net_4:2 0.0203
5 net_4:3 0.0203
6 net_4:4 0.0161
7 net_4:5 0.0161
*RES
2 inst_126:QN net_4:5 0.0050
3 net_4:1 inst_85:A 0.0050
4 net_4:2 net_4:1 0.0050
5 net_4:3 net_4:2 0.0014
6 net_4:4 net_4:3 0.0050
7 net_4:4 net_4:5 0.0010
*END

*D_NET net_95 0.2577
*CONN
*I inst_22:ZN O
*I inst_24:A3 I
*CAP
1 inst_22:ZN 0.0166
2 inst_24:A3 0.0166
3 net_95:1 0.0164
4 net_95:2 0.0164
5 net_95:3 0.0584
6 net_95:4 0.0584
7 net_95:5 0.0374
8 net_95:6 0.0374
*RES
2 inst_24:A3 net_95:6 0.0050
3 net_95:1 inst_22:ZN 0.0050
4 net_95:2 net_95:1 0.0010
5 net_95:3 net_95:2 0.0050
6 net_95:4 net_95:3 0.0081
7 net_95:5 net_95:4 0.0050
8 net_95:6 net_95:5 0.0020
*END

*D_NET net_17 0.8163
*CONN
*I inst_90:ZN O
*I inst_94:A I
*I inst_35:A2 I
*CAP
1 inst_90:ZN 0.0166
2 inst_94:A 0.0471
3 inst_35:A2 0.0332
4 net_17:1 0.0199
5 net_17:2 0.0199
6 net_17:3 0.0093
7 net_17:4 0.0093
8 net_17:5 0.0467
9 net_17:6 0.0467
10 net_17:7 0.1587
11 net_17:8 0.1587
12 net_17:9 0.0259
13 net_17:10 0.0259
14 net_17:11 0.0252
15 net_17:12 0.0274
16 net_17:13 0.0464
17 net_17:14 0.0442
18 net_17:15 0.0554
*RES
2 inst_35:A2 net_17:10 0.0050
3 net_17:1 inst_90:ZN 0.0050
4 net_17:2 net_17:1 0.0010
5 net_17:3 net_17:2 0.0050
6 net_17:3 net_17:4 0.0010
7 net_17:5 net_17:4 0.0050
8 net_17:6 net_17:5 0.0011
9 net_17:7 net_17:6 0.0050
10 net_17:7 net_17:8 0.0189
11 net_17:9 net_17:8 0.0050
12 net_17:9 net_17:10 0.0010
13 net_17:11 inst_35:A2 0.0050
14 net_17:11 net_17:12 0.0020
15 net_17:12 net_17:13 0.0010
16 net_17:13 net_17:14 0.0055
17 net_17:15 inst_94:A 0.0062
18 net_17:15 net_17:14 0.0050
*END

*D_NET net_173 0.6070
*CONN
*I inst_184:Z O
*I inst_185:A I
*CAP
1 inst_184:Z 0.0406
2 net_173:1 0.0073
3 net_173:2 0.1308
4 net_173:3 0.1374
5 inst_185:A 0.2909
*RES
2 inst_184:Z net_173:1 0.3706
3 net_173:1 net_173:2 0.0740
4 net_173:2 net_173:3 0.4871
5 net_173:3 inst_185:A 0.4951
*END

*D_NET net_78 0.3561
*CONN
*I inst_12:ZN O
*I inst_1:A I
*I inst_8:A1 I
*CAP
1 inst_12:ZN 0.0166
2 inst_1:A 0.0166
3 inst_8:A1 0.0166
4 net_78:1 0.0152
5 net_78:2 0.0453
6 net_78:3 0.0508
7 net_78:4 0.0132
8 net_78:5 0.0178
9 net_78:6 0.0178
10 net_78:7 0.0152
11 net_78:8 0.0212
12 net_78:9 0.0212
13 net_78:10 0.0443
14 net_78:11 0.0443
*RES
2 net_78:1 inst_1:A 0.0050
3 net_78:2 net_78:1 0.0050
4 net_78:2 net_78:3 0.0035
5 net_78:3 net_78:4 0.0010
6 net_78:4 net_78:5 0.0050
7 net_78:5 net_78:6 0.0010
8 net_78:6 inst_8:A1 0.0050
9 net_78:7 inst_12:ZN 0.0050
10 net_78:8 net_78:7 0.0050
11 net_78:9 net_78:8 0.0012
12 net_78:10 net_78:9 0.0050
13 net_78:10 net_78:11 0.0015
14 net_78:11 net_78:3 0.0050
*END

*D_NET A1 0.5312
*CONN
*P A1 I
*I inst_70:A I
*CAP
1 A1 0.0130
2 inst_70:A 0.0166
3 A1:1 0.0206
4 A1:2 0.0167
5 A1:3 0.2152
6 A1:4 0.2137
7 A1:5 0.0176
8 A1:6 0.0176
*RES
2 A1 A1:1 0.0010
3 inst_70:A A1:6 0.0050
4 A1:2 A1:1 0.0050
5 A1:3 A1:2 0.0010
6 A1:3 A1:4 0.0197
7 A1:5 A1:4 0.0050
8 A1:6 A1:5 0.0010
*END

*D_NET net_27 0.3263
*CONN
*I inst_96:ZN O
*I inst_42:A1 I
*I inst_1:B I
*CAP
1 inst_96:ZN 0.0332
2 inst_42:A1 0.0166
3 inst_1:B 0.0166
4 net_27:1 0.0423
5 net_27:2 0.0385
6 net_27:3 0.0270
7 net_27:4 0.0270
8 net_27:5 0.0165
9 net_27:6 0.0165
10 net_27:7 0.0175
11 net_27:8 0.0385
12 net_27:9 0.0362
*RES
2 inst_96:ZN net_27:6 0.0050
3 inst_1:B net_27:9 0.0050
4 net_27:1 inst_42:A1 0.0050
5 net_27:1 net_27:2 0.0040
6 net_27:3 net_27:2 0.0050
7 net_27:4 net_27:3 0.0020
8 net_27:5 net_27:4 0.0050
9 net_27:5 net_27:6 0.0010
10 net_27:7 inst_96:ZN 0.0050
11 net_27:8 net_27:7 0.0010
12 net_27:8 net_27:9 0.0040
*END

*D_NET net_164 1.6212
*CONN
*I inst_175:Z O
*I inst_176:A I
*CAP
1 inst_175:Z 0.1250
2 net_164:1 0.4976
3 net_164:2 0.3591
4 net_164:3 0.2780
5 net_164:4 0.2022
6 inst_176:A 0.1593
*RES
2 inst_175:Z net_164:1 0.4382
3 net_164:1 net_164:2 0.3498
4 net_164:2 net_164:3 0.4055
5 net_164:3 net_164:4 0.4519
6 net_164:4 inst_176:A 0.4658
*END

*D_NET net_56 0.7347
*CONN
*I inst_83:ZN O
*I inst_110:A I
*I inst_13:A1 I
*I inst_51:A1 I
*I inst_58:A1 I
*CAP
1 inst_83:ZN 0.0166
2 inst_110:A 0.1792
3 inst_13:A1 0.0166
4 inst_51:A1 0.0166
5 inst_58:A1 0.0166
6 net_56:1 0.0161
7 net_56:2 0.0403
8 net_56:3 0.0395
9 net_56:4 0.1875
10 net_56:5 0.0152
11 net_56:6 0.0295
12 net_56:7 0.0330
13 net_56:8 0.0333
14 net_56:9 0.0152
15 net_56:10 0.0414
16 net_56:11 0.0152
17 net_56:12 0.0230
*RES
2 net_56:1 inst_13:A1 0.0050
3 net_56:1 net_56:2 0.0010
4 net_56:2 net_56:3 0.0025
5 net_56:3 net_56:4 0.0050
6 net_56:4 inst_110:A 0.0258
7 net_56:5 inst_51:A1 0.0050
8 net_56:6 net_56:5 0.0050
9 net_56:6 net_56:7 0.0010
10 net_56:7 net_56:8 0.0027
11 net_56:8 net_56:2 0.0050
12 net_56:9 inst_58:A1 0.0050
13 net_56:10 net_56:6 0.0020
14 net_56:10 net_56:9 0.0050
15 net_56:11 inst_83:ZN 0.0050
16 net_56:12 net_56:10 0.0014
17 net_56:12 net_56:11 0.0050
*END

*D_NET net_87 0.2055
*CONN
*I inst_74:Z O
*I inst_134:D I
*CAP
1 inst_74:Z 0.0380
2 inst_134:D 0.0166
3 net_87:1 0.0523
4 net_87:2 0.0523
5 net_87:3 0.0463
*RES
2 inst_74:Z net_87:3 0.0052
3 net_87:1 inst_134:D 0.0050
4 net_87:1 net_87:2 0.0040
5 net_87:3 net_87:2 0.0050
*END

*D_NET net_0 0.3841
*CONN
*I inst_135:QN O
*I inst_89:A I
*I inst_140:A2 I
*CAP
1 inst_89:A 0.0166
2 inst_140:A2 0.0166
3 inst_135:QN 0.0166
4 net_0:1 0.0200
5 net_0:2 0.0515
6 net_0:3 0.0213
7 net_0:4 0.0213
8 net_0:5 0.0177
9 net_0:6 0.0177
10 net_0:7 0.0162
11 net_0:8 0.0162
12 net_0:9 0.0567
13 net_0:10 0.0567
14 net_0:11 0.0391
*RES
2 net_0:1 inst_89:A 0.0050
3 net_0:2 net_0:1 0.0015
4 net_0:2 net_0:3 0.0050
5 net_0:3 net_0:4 0.0020
6 net_0:4 net_0:5 0.0050
7 net_0:5 net_0:6 0.0010
8 net_0:6 inst_135:QN 0.0050
9 net_0:7 inst_140:A2 0.0050
10 net_0:7 net_0:8 0.0010
11 net_0:9 net_0:8 0.0050
12 net_0:9 net_0:10 0.0047
13 net_0:11 net_0:2 0.0025
14 net_0:11 net_0:10 0.0050
*END

*D_NET net_155 1.1059
*CONN
*I inst_166:Z O
*I inst_132:CK I
*CAP
1 inst_166:Z 0.1128
2 net_155:1 0.0917
3 net_155:2 0.4230
4 net_155:3 0.1494
5 inst_132:CK 0.3290
*RES
2 inst_166:Z net_155:1 0.1620
3 net_155:1 net_155:2 0.0029
4 net_155:2 net_155:3 0.2883
5 net_155:3 inst_132:CK 0.1903
*END

*D_NET net_35 0.1317
*CONN
*I inst_5:ZN O
*I inst_52:A1 I
*CAP
1 inst_5:ZN 0.0152
2 inst_52:A1 0.0166
3 net_35:1 0.0235
4 net_35:2 0.0363
5 net_35:3 0.0401
*RES
2 inst_52:A1 net_35:3 0.0050
3 net_35:1 inst_5:ZN 0.0021
4 net_35:2 net_35:1 0.0050
5 net_35:3 net_35:2 0.0045
*END

*D_NET net_16 0.2643
*CONN
*I inst_80:ZN O
*I inst_93:A I
*I inst_17:A3 I
*CAP
1 inst_80:ZN 0.0099
2 inst_93:A 0.0166
3 inst_17:A3 0.0166
4 net_16:1 0.0195
5 net_16:2 0.0304
6 net_16:3 0.0501
7 net_16:4 0.0501
8 net_16:5 0.0171
9 net_16:6 0.0171
10 net_16:7 0.0182
11 net_16:8 0.0186
*RES
2 net_16:1 inst_93:A 0.0050
3 net_16:1 net_16:2 0.0015
4 net_16:2 net_16:8 0.0010
5 net_16:2 net_16:3 0.0050
6 net_16:3 net_16:4 0.0068
7 net_16:4 net_16:5 0.0050
8 net_16:6 inst_17:A3 0.0050
9 net_16:6 net_16:5 0.0010
10 net_16:7 inst_80:ZN 0.0010
11 net_16:8 net_16:7 0.0050
*END

*D_NET net_22 0.1261
*CONN
*I inst_28:ZN O
*I inst_98:A I
*CAP
1 inst_28:ZN 0.0166
2 inst_98:A 0.0222
3 net_22:1 0.0284
4 net_22:2 0.0284
5 net_22:3 0.0305
*RES
2 net_22:1 inst_28:ZN 0.0050
3 net_22:2 net_22:1 0.0030
4 net_22:3 inst_98:A 0.0031
5 net_22:3 net_22:2 0.0050
*END

*D_NET net_181 1.6741
*CONN
*I inst_192:Z O
*I inst_193:A I
*CAP
1 inst_192:Z 0.4606
2 net_181:1 0.4657
3 net_181:2 0.3595
4 net_181:3 0.2471
5 net_181:4 0.0832
6 inst_193:A 0.0580
*RES
2 inst_192:Z net_181:1 0.3736
3 net_181:1 net_181:2 0.0395
4 net_181:2 net_181:3 0.3644
5 net_181:3 net_181:4 0.0829
6 net_181:4 inst_193:A 0.1977
*END

*D_NET net_39 0.1631
*CONN
*I inst_47:ZN O
*I inst_53:A2 I
*CAP
1 inst_47:ZN 0.0166
2 inst_53:A2 0.0166
3 net_39:1 0.0281
4 net_39:2 0.0281
5 net_39:3 0.0293
6 net_39:4 0.0293
7 net_39:5 0.0152
*RES
2 inst_53:A2 net_39:5 0.0050
3 net_39:1 inst_47:ZN 0.0050
4 net_39:2 net_39:1 0.0025
5 net_39:3 net_39:2 0.0050
6 net_39:4 net_39:3 0.0034
7 net_39:5 net_39:4 0.0050
*END

*D_NET net_157 0.5520
*CONN
*I inst_168:Z O
*I inst_169:A I
*CAP
1 inst_168:Z 0.1459
2 net_157:1 0.1026
3 net_157:2 0.1939
4 inst_169:A 0.1095
*RES
2 inst_168:Z net_157:1 0.0212
3 net_157:1 net_157:2 0.1417
4 net_157:2 inst_169:A 0.2190
*END

*D_NET net_144 1.5644
*CONN
*I inst_155:Z O
*I inst_156:A I
*CAP
1 inst_155:Z 0.1138
2 net_144:1 0.3663
3 net_144:2 0.2540
4 net_144:3 0.0526
5 net_144:4 0.2388
6 net_144:5 0.1787
7 inst_156:A 0.3603
*RES
2 inst_155:Z net_144:1 0.0603
3 net_144:1 net_144:2 0.0863
4 net_144:2 net_144:3 0.3102
5 net_144:3 net_144:4 0.1239
6 net_144:4 net_144:5 0.2473
7 net_144:5 inst_156:A 0.0055
*END

*D_NET net_102 4.2299
*CONN
*I inst_123:ZN O
*I inst_124:RN I
*I inst_125:RN I
*I inst_126:RN I
*I inst_127:RN I
*I inst_128:RN I
*I inst_129:RN I
*I inst_130:RN I
*I inst_131:RN I
*I inst_132:RN I
*I inst_133:RN I
*I inst_134:RN I
*I inst_135:RN I
*I inst_136:RN I
*I inst_137:RN I
*I inst_138:RN I
*CAP
1 inst_123:ZN 0.1096
2 inst_124:RN 0.0166
3 inst_125:RN 0.0072
4 inst_126:RN 0.0077
5 inst_127:RN 0.0166
6 inst_128:RN 0.0072
7 inst_129:RN 0.0072
8 inst_130:RN 0.0166
9 inst_131:RN 0.0072
10 inst_132:RN 0.0072
11 inst_133:RN 0.0166
12 inst_134:RN 0.0155
13 inst_135:RN 0.0072
14 inst_136:RN 0.0166
15 inst_137:RN 0.0072
16 inst_138:RN 0.0166
17 net_102:1 0.0155
18 net_102:2 0.0196
19 net_102:3 0.0196
20 net_102:4 0.0223
21 net_102:5 0.1233
22 net_102:6 0.0976