*SPEF "IEEE 1481-1998"
*DESIGN "c499"
*DATE "Tue Nov 25 16:54:45 2014"
*VENDOR "TAU 2015 Contest"
*PROGRAM "Benchmark Parasitic Generator"
*VERSION "0.0"
*DESIGN_FLOW "NETLIST_TYPE_VERILOG"
*DIVIDER /
*DELIMITER :
*BUS_DELIMITER [ ]
*T_UNIT 1 PS
*C_UNIT 1 FF
*R_UNIT 1 KOHM
*L_UNIT 1 UH

*D_NET net_107 0.2080
*CONN
*I inst_147:ZN O
*I inst_95:B I
*CAP
1 inst_147:ZN 0.0166
2 inst_95:B 0.0166
3 net_107:1 0.0419
4 net_107:2 0.0419
5 net_107:3 0.0223
6 net_107:4 0.0223
7 net_107:5 0.0232
8 net_107:6 0.0232
*RES
2 inst_95:B net_107:6 0.0050
3 net_107:1 inst_147:ZN 0.0050
4 net_107:2 net_107:1 0.0025
5 net_107:3 net_107:2 0.0050
6 net_107:4 net_107:3 0.0014
7 net_107:5 net_107:4 0.0050
8 net_107:6 net_107:5 0.0020
*END

*D_NET net_47 0.1455
*CONN
*I inst_47:ZN O
*I inst_66:A I
*CAP
1 inst_47:ZN 0.0166
2 inst_66:A 0.0166
3 net_47:1 0.0178
4 net_47:2 0.0178
5 net_47:3 0.0307
6 net_47:4 0.0307
7 net_47:5 0.0152
*RES
2 inst_47:ZN net_47:5 0.0050
3 net_47:1 inst_66:A 0.0050
4 net_47:2 net_47:1 0.0010
5 net_47:3 net_47:2 0.0050
6 net_47:4 net_47:3 0.0020
7 net_47:5 net_47:4 0.0050
*END

*D_NET nod23 1.6396
*CONN
*I inst_89:ZN O
*P nod23 O
*CAP
1 nod23 0.0018
2 inst_89:ZN 0.0166
3 nod23:1 0.0826
4 nod23:2 0.0826
5 nod23:3 0.4982
6 nod23:4 0.4979
7 nod23:5 0.2169
8 nod23:6 0.2210
9 nod23:7 0.0139
10 nod23:8 0.0082
*RES
2 nod23:1 inst_89:ZN 0.0050
3 nod23:2 nod23:1 0.0090
4 nod23:3 nod23:2 0.0050
5 nod23:3 nod23:4 0.0509
6 nod23:5 nod23:4 0.0010
7 nod23:5 nod23:6 0.0231
8 nod23:7 nod23:6 0.0050
9 nod23:7 nod23:8 0.0010
10 nod23:8 nod23 0.0010
*END

*D_NET net_61 0.1929
*CONN
*I inst_53:ZN O
*I inst_60:A I
*CAP
1 inst_53:ZN 0.0166
2 inst_60:A 0.0166
3 net_61:1 0.0184
4 net_61:2 0.0184
5 net_61:3 0.0538
6 net_61:4 0.0538
7 net_61:5 0.0152
*RES
2 inst_53:ZN net_61:5 0.0050
3 net_61:1 inst_60:A 0.0050
4 net_61:2 net_61:1 0.0010
5 net_61:3 net_61:2 0.0050
6 net_61:4 net_61:3 0.0041
7 net_61:5 net_61:4 0.0050
*END

*D_NET net_137 0.2437
*CONN
*I inst_165:ZN O
*I inst_92:B I
*CAP
1 inst_165:ZN 0.0166
2 inst_92:B 0.0166
3 net_137:1 0.0451
4 net_137:2 0.0451
5 net_137:3 0.0450
6 net_137:4 0.0450
7 net_137:5 0.0152
8 net_137:6 0.0152
*RES
2 inst_92:B net_137:6 0.0050
3 net_137:1 inst_165:ZN 0.0050
4 net_137:2 net_137:1 0.0035
5 net_137:3 net_137:2 0.0050
6 net_137:3 net_137:4 0.0027
7 net_137:5 net_137:4 0.0050
8 net_137:6 net_137:5 0.0010
*END

*D_NET nid21 1.7162
*CONN
*P nid21 I
*I inst_4:A I
*I inst_20:A I
*I inst_91:A I
*CAP
1 nid21 0.0130
2 inst_4:A 0.0332
3 inst_20:A 0.0332
4 inst_91:A 0.0166
5 nid21:1 0.0206
6 nid21:2 0.0193
7 nid21:3 0.2122
8 nid21:4 0.2081
9 nid21:5 0.0314
10 nid21:6 0.0314
11 nid21:7 0.0162
12 nid21:8 0.0162
13 nid21:9 0.1833
14 nid21:10 0.1833
15 nid21:11 0.0182
16 nid21:12 0.0182
17 nid21:13 0.0151
18 nid21:14 0.0151
19 nid21:15 0.2689
20 nid21:16 0.2689
21 nid21:17 0.0468
22 nid21:18 0.0468
*RES
2 nid21 nid21:1 0.0010
3 inst_4:A nid21:12 0.0050
4 inst_20:A nid21:6 0.0050
5 inst_91:A nid21:18 0.0050
6 nid21:2 nid21:1 0.0050
7 nid21:2 nid21:3 0.0010
8 nid21:3 nid21:4 0.0183
9 nid21:5 nid21:4 0.0050
10 nid21:5 nid21:6 0.0025
11 nid21:7 inst_20:A 0.0050
12 nid21:8 nid21:7 0.0010
13 nid21:9 nid21:8 0.0050
14 nid21:9 nid21:10 0.0197
15 nid21:11 nid21:10 0.0050
16 nid21:11 nid21:12 0.0010
17 nid21:13 inst_4:A 0.0050
18 nid21:13 nid21:14 0.0010
19 nid21:15 nid21:14 0.0050
20 nid21:15 nid21:16 0.0238
21 nid21:17 nid21:16 0.0050
22 nid21:18 nid21:17 0.0060
*END

*D_NET net_132 0.2707
*CONN
*I inst_162:ZN O
*I inst_74:B I
*CAP
1 inst_162:ZN 0.0099
2 inst_74:B 0.0166
3 net_132:1 0.0182
4 net_132:2 0.0152
5 net_132:3 0.0407
6 net_132:4 0.0407
7 net_132:5 0.0647
8 net_132:6 0.0647
*RES
2 inst_162:ZN net_132:1 0.0010
3 inst_74:B net_132:6 0.0050
4 net_132:2 net_132:1 0.0050
5 net_132:3 net_132:2 0.0050
6 net_132:3 net_132:4 0.0027
7 net_132:5 net_132:4 0.0050
8 net_132:5 net_132:6 0.0040
*END

*D_NET net_54 0.4652
*CONN
*I inst_37:ZN O
*I inst_50:B I
*I inst_55:B I
*CAP
1 inst_37:ZN 0.0166
2 inst_50:B 0.0166
3 inst_55:B 0.0166
4 net_54:1 0.1115
5 net_54:2 0.0164
6 net_54:3 0.0628
7 net_54:4 0.0628
8 net_54:5 0.0178
9 net_54:6 0.0178
10 net_54:7 0.0175
11 net_54:8 0.1088
*RES
2 net_54:1 inst_55:B 0.0050
3 net_54:1 net_54:2 0.0010
4 net_54:2 net_54:3 0.0050
5 net_54:4 net_54:3 0.0047
6 net_54:4 net_54:5 0.0050
7 net_54:6 inst_50:B 0.0050
8 net_54:6 net_54:5 0.0010
9 net_54:7 inst_37:ZN 0.0050
10 net_54:8 net_54:1 0.0115
11 net_54:8 net_54:7 0.0010
*END

*D_NET net_105 0.5211
*CONN
*I inst_113:ZN O
*I inst_141:A2 I
*I inst_143:A2 I
*I inst_146:A2 I
*I inst_148:A2 I
*CAP
1 inst_113:ZN 0.0076
2 inst_141:A2 0.0153
3 inst_143:A2 0.0244
4 inst_146:A2 0.0363
5 inst_148:A2 0.0143
6 net_105:1 0.0480
7 net_105:2 0.0152
8 net_105:3 0.0450
9 net_105:4 0.0450
10 net_105:5 0.0569
11 net_105:6 0.0607
12 net_105:7 0.0227
13 net_105:8 0.0159
14 net_105:9 0.0408
15 net_105:10 0.0408
16 net_105:11 0.0321
*RES
2 inst_113:ZN net_105:8 0.0010
3 inst_143:A2 net_105:1 0.0031
4 inst_146:A2 net_105:2 0.0050
5 net_105:1 inst_141:A2 0.0021
6 net_105:2 net_105:3 0.0050
7 net_105:3 net_105:4 0.0034
8 net_105:4 net_105:5 0.0050
9 net_105:5 net_105:6 0.0065
10 net_105:5 net_105:7 0.0050
11 net_105:6 net_105:1 0.0050
12 net_105:7 inst_148:A2 0.0021
13 net_105:9 net_105:8 0.0050
14 net_105:9 net_105:10 0.0030
15 net_105:11 inst_146:A2 0.0031
16 net_105:11 net_105:10 0.0050
*END

*D_NET net_62 0.1320
*CONN
*I inst_54:ZN O
*I inst_63:A I
*CAP
1 inst_54:ZN 0.0051
2 inst_63:A 0.0166
3 net_62:1 0.0176
4 net_62:2 0.0177
5 net_62:3 0.0177
6 net_62:4 0.0211
7 net_62:5 0.0211
8 net_62:6 0.0152
*RES
2 inst_63:A net_62:6 0.0050
3 net_62:1 inst_54:ZN 0.0010
4 net_62:2 net_62:1 0.0050
5 net_62:2 net_62:3 0.0010
6 net_62:4 net_62:3 0.0050
7 net_62:5 net_62:4 0.0014
8 net_62:6 net_62:5 0.0050
*END

*D_NET net_6 0.2319
*CONN
*I inst_129:ZN O
*I inst_58:B I
*CAP
1 inst_129:ZN 0.0312
2 inst_58:B 0.0166
3 net_6:1 0.0395
4 net_6:2 0.0152
5 net_6:3 0.0480
6 net_6:4 0.0480
7 net_6:5 0.0167
8 net_6:6 0.0167
*RES
2 inst_129:ZN net_6:1 0.0041
3 inst_58:B net_6:6 0.0050
4 net_6:2 net_6:1 0.0050
5 net_6:3 net_6:2 0.0050
6 net_6:3 net_6:4 0.0027
7 net_6:5 net_6:4 0.0050
8 net_6:5 net_6:6 0.0010
*END

*D_NET nid13 1.6186
*CONN
*P nid13 I
*I inst_11:B I
*I inst_14:A I
*I inst_100:A I
*CAP
1 nid13 0.0232
2 inst_11:B 0.0166
3 inst_14:A 0.0332
4 inst_100:A 0.0166
5 nid13:1 0.0434
6 nid13:2 0.0434
7 nid13:3 0.1593
8 nid13:4 0.1746
9 nid13:5 0.0412
10 nid13:6 0.0412
11 nid13:7 0.0346
12 nid13:8 0.1562
13 nid13:9 0.1562
14 nid13:10 0.2501
15 nid13:11 0.2463
16 nid13:12 0.0798
17 nid13:13 0.0798
18 nid13:14 0.0230
*RES
2 inst_14:A nid13:11 0.0050
3 nid13:1 inst_11:B 0.0050
4 nid13:2 nid13:1 0.0030
5 nid13:3 nid13:2 0.0050
6 nid13:3 nid13:4 0.0122
7 nid13:4 nid13:14 0.0014
8 nid13:4 nid13:5 0.0050
9 nid13:6 inst_100:A 0.0050
10 nid13:6 nid13:5 0.0030
11 nid13:7 nid13 0.0025
12 nid13:8 nid13:7 0.0050
13 nid13:9 nid13:8 0.0116
14 nid13:10 nid13:9 0.0050
15 nid13:11 nid13:10 0.0170
16 nid13:12 inst_14:A 0.0050
17 nid13:13 nid13:12 0.0085
18 nid13:14 nid13:13 0.0050
*END

*D_NET net_129 0.1875
*CONN
*I inst_160:ZN O
*I inst_105:B I
*CAP
1 inst_160:ZN 0.0166
2 inst_105:B 0.0166
3 net_129:1 0.0152
4 net_129:2 0.0502
5 net_129:3 0.0502
6 net_129:4 0.0193
7 net_129:5 0.0193
*RES
2 inst_160:ZN net_129:5 0.0050
3 net_129:1 inst_105:B 0.0050
4 net_129:2 net_129:1 0.0050
5 net_129:2 net_129:3 0.0034
6 net_129:4 net_129:3 0.0050
7 net_129:5 net_129:4 0.0010
*END

*D_NET net_119 0.1806
*CONN
*I inst_154:ZN O
*I inst_97:B I
*CAP
1 inst_154:ZN 0.0216
2 inst_97:B 0.0166
3 net_119:1 0.0299
4 net_119:2 0.0164
5 net_119:3 0.0164
6 net_119:4 0.0322
7 net_119:5 0.0322
8 net_119:6 0.0152
*RES
2 inst_97:B net_119:6 0.0050
3 net_119:1 inst_154:ZN 0.0041
4 net_119:2 net_119:1 0.0050
5 net_119:2 net_119:3 0.0010
6 net_119:4 net_119:3 0.0050
7 net_119:5 net_119:4 0.0027
8 net_119:6 net_119:5 0.0050
*END

*D_NET net_98 0.1563
*CONN
*I inst_140:ZN O
*I inst_94:B I
*CAP
1 inst_140:ZN 0.0166
2 inst_94:B 0.0166
3 net_98:1 0.0615
4 net_98:2 0.0615
*RES
2 inst_94:B net_98:2 0.0050
3 net_98:1 inst_140:ZN 0.0050
4 net_98:2 net_98:1 0.0045
*END

*D_NET nod30 0.5642
*CONN
*I inst_81:ZN O
*P nod30 O
*CAP
1 nod30 0.0018
2 inst_81:ZN 0.0166
3 nod30:1 0.0341
4 nod30:2 0.0341
5 nod30:3 0.1931
6 nod30:4 0.1970
7 nod30:5 0.0466
8 nod30:6 0.0408
*RES
2 nod30:1 inst_81:ZN 0.0050
3 nod30:1 nod30:2 0.0025
4 nod30:3 nod30:2 0.0050
5 nod30:3 nod30:4 0.0197
6 nod30:5 nod30:4 0.0050
7 nod30:5 nod30:6 0.0042
8 nod30:6 nod30 0.0010
*END

*D_NET net_23 0.4673
*CONN
*I inst_28:ZN O
*I inst_44:B I
*CAP
1 inst_28:ZN 0.0166
2 inst_44:B 0.0166
3 net_23:1 0.1369
4 net_23:2 0.1369
5 net_23:3 0.0396
6 net_23:4 0.0396
7 net_23:5 0.0423
8 net_23:6 0.0385
*RES
2 inst_44:B net_23:6 0.0050
3 net_23:1 inst_28:ZN 0.0050
4 net_23:1 net_23:2 0.0160
5 net_23:3 net_23:2 0.0050
6 net_23:3 net_23:4 0.0020
7 net_23:5 net_23:4 0.0050
8 net_23:5 net_23:6 0.0029
*END

*D_NET net_117 2.8312
*CONN
*I inst_67:ZN O
*I inst_108:A2 I
*I inst_131:A1 I
*I inst_107:A1 I
*I inst_146:A1 I
*I inst_152:A1 I
*I inst_153:A1 I
*I inst_163:A1 I
*CAP
1 inst_67:ZN 0.0166
2 inst_108:A2 0.0166
3 inst_131:A1 0.0166
4 inst_107:A1 0.0659
5 inst_146:A1 0.0166
6 inst_152:A1 0.0166
7 inst_153:A1 0.0166
8 inst_163:A1 0.0166
9 net_117:1 0.0212
10 net_117:2 0.0212
11 net_117:3 0.0782
12 net_117:4 0.0218
13 net_117:5 0.0510
14 net_117:6 0.0510
15 net_117:7 0.2159
16 net_117:8 0.2159
17 net_117:9 0.0414
18 net_117:10 0.2453
19 net_117:11 0.2039
20 net_117:12 0.0174
21 net_117:13 0.0174
22 net_117:14 0.0386
23 net_117:15 0.0386
24 net_117:16 0.0617
25 net_117:17 0.0178
26 net_117:18 0.0178
27 net_117:19 0.0198
28 net_117:20 0.0198
29 net_117:21 0.0819
30 net_117:22 0.0819
31 net_117:23 0.0223
32 net_117:24 0.0688
33 net_117:25 0.0541
34 net_117:26 0.0152
35 net_117:27 0.0176
36 net_117:28 0.0176
37 net_117:29 0.0713
38 net_117:30 0.0481
39 net_117:31 0.0235
40 net_117:32 0.0293
41 net_117:33 0.0293
42 net_117:34 0.0175
43 net_117:35 0.0655
44 net_117:36 0.0632
45 net_117:37 0.0186
46 net_117:38 0.0152
47 net_117:39 0.0358
48 net_117:40 0.0358
49 net_117:41 0.0084
50 net_117:42 0.0084
51 net_117:43 0.0836
52 net_117:44 0.0836
53 net_117:45 0.0084
54 net_117:46 0.0084
55 net_117:47 0.0360
56 net_117:48 0.0152
57 net_117:49 0.0845
58 net_117:50 0.0845
*RES
2 inst_107:A1 net_117:17 0.0050
3 net_117:1 inst_108:A2 0.0050
4 net_117:2 net_117:1 0.0010
5 net_117:3 net_117:2 0.0050
6 net_117:3 net_117:29 0.0047
7 net_117:4 net_117:3 0.0013
8 net_117:5 net_117:4 0.0050
9 net_117:5 net_117:6 0.0013
10 net_117:7 net_117:6 0.0050
11 net_117:8 net_117:7 0.0190
12 net_117:9 net_117:8 0.0050
13 net_117:10 net_117:9 0.0011
14 net_117:11 net_117:10 0.0053
15 net_117:11 net_117:12 0.0050
16 net_117:12 net_117:13 0.0010
17 net_117:13 net_117:14 0.0050
18 net_117:15 net_117:14 0.0025
19 net_117:15 net_117:16 0.0050
20 net_117:16 inst_107:A1 0.0072
21 net_117:17 net_117:18 0.0010
22 net_117:18 net_117:19 0.0050
23 net_117:19 net_117:20 0.0010
24 net_117:20 net_117:21 0.0050
25 net_117:22 net_117:21 0.0034
26 net_117:22 net_117:23 0.0050
27 net_117:23 net_117:24 0.0014
28 net_117:24 net_117:25 0.0041
29 net_117:24 net_117:38 0.0050
30 net_117:25 net_117:26 0.0050
31 net_117:26 inst_163:A1 0.0050
32 net_117:27 inst_131:A1 0.0050
33 net_117:28 net_117:27 0.0010
34 net_117:29 net_117:28 0.0050
35 net_117:29 net_117:37 0.0010
36 net_117:30 inst_146:A1 0.0050
37 net_117:30 net_117:31 0.0015
38 net_117:32 net_117:31 0.0050
39 net_117:33 net_117:32 0.0041
40 net_117:34 net_117:33 0.0050
41 net_117:35 net_117:34 0.0010
42 net_117:35 net_117:36 0.0080
43 net_117:37 net_117:36 0.0050
44 net_117:38 inst_153:A1 0.0050
45 net_117:39 inst_152:A1 0.0050
46 net_117:39 net_117:40 0.0025
47 net_117:41 net_117:40 0.0050
48 net_117:42 net_117:41 0.0010
49 net_117:43 net_117:42 0.0050
50 net_117:43 net_117:44 0.0023
51 net_117:45 net_117:44 0.0050
52 net_117:45 net_117:46 0.0010
53 net_117:47 net_117:30 0.0020
54 net_117:47 net_117:46 0.0050
55 net_117:48 inst_67:ZN 0.0050
56 net_117:49 net_117:48 0.0050
57 net_117:49 net_117:50 0.0083
58 net_117:50 net_117:10 0.0050
*END

*D_NET net_12 0.0929
*CONN
*I inst_3:Z O
*I inst_32:A I
*CAP
1 inst_3:Z 0.0166
2 inst_32:A 0.0166
3 net_12:1 0.0298
4 net_12:2 0.0298
*RES
2 inst_3:Z net_12:2 0.0050
3 net_12:1 inst_32:A 0.0050
4 net_12:2 net_12:1 0.0030
*END

*D_NET net_74 0.1405
*CONN
*I inst_72:ZN O
*I inst_106:A3 I
*CAP
1 inst_72:ZN 0.0072
2 inst_106:A3 0.0166
3 net_74:1 0.0152
4 net_74:2 0.0333
5 net_74:3 0.0333
6 net_74:4 0.0152
7 net_74:5 0.0196
*RES
2 inst_72:ZN net_74:5 0.0010
3 net_74:1 inst_106:A3 0.0050
4 net_74:2 net_74:1 0.0050
5 net_74:3 net_74:2 0.0014
6 net_74:4 net_74:3 0.0050
7 net_74:5 net_74:4 0.0050
*END

*D_NET net_53 0.2501
*CONN
*I inst_49:ZN O
*I inst_57:A I
*CAP
1 inst_49:ZN 0.0166
2 inst_57:A 0.0166
3 net_53:1 0.0272
4 net_53:2 0.0272
5 net_53:3 0.0385
6 net_53:4 0.0385
7 net_53:5 0.0428
8 net_53:6 0.0428
*RES
2 inst_57:A net_53:6 0.0050
3 net_53:1 inst_49:ZN 0.0050
4 net_53:1 net_53:2 0.0020
5 net_53:3 net_53:2 0.0050
6 net_53:4 net_53:3 0.0014
7 net_53:5 net_53:4 0.0050
8 net_53:5 net_53:6 0.0040
*END

*D_NET net_93 0.6199
*CONN
*I inst_132:ZN O
*I inst_134:A1 I
*I inst_113:A1 I
*I inst_114:A1 I
*CAP
1 inst_132:ZN 0.0166
2 inst_134:A1 0.0166
3 inst_113:A1 0.0166
4 inst_114:A1 0.0166
5 net_93:1 0.0232
6 net_93:2 0.0296
7 net_93:3 0.1108
8 net_93:4 0.1108
9 net_93:5 0.0404
10 net_93:6 0.0169
11 net_93:7 0.0169
12 net_93:8 0.0169
13 net_93:9 0.0470
14 net_93:10 0.0470
15 net_93:11 0.0140
16 net_93:12 0.0221
17 net_93:13 0.0244
18 net_93:14 0.0334
*RES
2 net_93:1 inst_134:A1 0.0050
3 net_93:2 net_93:1 0.0015
4 net_93:3 net_93:2 0.0050
5 net_93:3 net_93:4 0.0134
6 net_93:5 net_93:4 0.0050
7 net_93:5 net_93:14 0.0030
8 net_93:6 inst_113:A1 0.0050
9 net_93:6 net_93:5 0.0010
10 net_93:7 inst_114:A1 0.0050
11 net_93:7 net_93:8 0.0010
12 net_93:9 net_93:8 0.0050
13 net_93:9 net_93:10 0.0041
14 net_93:11 net_93:2 0.0010
15 net_93:11 net_93:10 0.0050
16 net_93:12 inst_132:ZN 0.0050
17 net_93:13 net_93:12 0.0010
18 net_93:14 net_93:13 0.0010
*END

*D_NET net_135 0.9970
*CONN
*I inst_112:ZN O
*I inst_145:A2 I
*I inst_160:A2 I
*I inst_164:A2 I
*I inst_168:A2 I
*CAP
1 inst_112:ZN 0.0305
2 inst_145:A2 0.0166
3 inst_160:A2 0.0166
4 inst_164:A2 0.0166
5 inst_168:A2 0.0166
6 net_135:1 0.0306
7 net_135:2 0.0306
8 net_135:3 0.0141
9 net_135:4 0.0141
10 net_135:5 0.0526
11 net_135:6 0.0526
12 net_135:7 0.0106
13 net_135:8 0.0106
14 net_135:9 0.0724
15 net_135:10 0.0686
16 net_135:11 0.0222
17 net_135:12 0.0152
18 net_135:13 0.0723
19 net_135:14 0.0761
20 net_135:15 0.0850
21 net_135:16 0.0273
22 net_135:17 0.0918
23 net_135:18 0.1533
*RES
2 inst_112:ZN net_135:10 0.0050
3 inst_164:A2 net_135:18 0.0050
4 net_135:1 inst_145:A2 0.0050
5 net_135:2 net_135:1 0.0025
6 net_135:3 net_135:2 0.0050
7 net_135:4 net_135:3 0.0010
8 net_135:5 net_135:4 0.0050
9 net_135:6 net_135:5 0.0010
10 net_135:7 net_135:6 0.0050
11 net_135:7 net_135:8 0.0010
12 net_135:9 net_135:8 0.0050
13 net_135:10 net_135:9 0.0085
14 net_135:11 inst_112:ZN 0.0021
15 net_135:12 net_135:11 0.0050
16 net_135:13 net_135:12 0.0050
17 net_135:14 net_135:13 0.0061
18 net_135:15 net_135:14 0.0050
19 net_135:15 net_135:16 0.0015
20 net_135:16 inst_160:A2 0.0050
21 net_135:17 inst_168:A2 0.0050
22 net_135:17 net_135:18 0.0100
23 net_135:18 net_135:15 0.0050
*END

*D_NET nid3 1.8882
*CONN
*P nid3 I
*I inst_8:B I
*I inst_25:A I
*I inst_82:A I
*CAP
1 nid3 0.0130
2 inst_8:B 0.0332
3 inst_25:A 0.0166
4 inst_82:A 0.0166
5 nid3:1 0.1992
6 nid3:2 0.2030
7 nid3:3 0.3365
8 nid3:4 0.1779
9 nid3:5 0.0847
10 nid3:6 0.0847
11 nid3:7 0.0962
12 nid3:8 0.0962
13 nid3:9 0.0206
14 nid3:10 0.0175
15 nid3:11 0.1645
16 nid3:12 0.1619
17 nid3:13 0.1659
*RES
2 nid3 nid3:9 0.0010
3 inst_8:B nid3:8 0.0050
4 nid3:1 inst_25:A 0.0050
5 nid3:1 nid3:2 0.0230
6 nid3:3 nid3:2 0.0050
7 nid3:3 nid3:4 0.0176
8 nid3:4 nid3:5 0.0050
9 nid3:6 inst_8:B 0.0050
10 nid3:6 nid3:5 0.0075
11 nid3:7 inst_82:A 0.0050
12 nid3:7 nid3:8 0.0105
13 nid3:10 nid3:9 0.0050
14 nid3:11 nid3:10 0.0010
15 nid3:11 nid3:12 0.0136
16 nid3:12 nid3:13 0.0010
17 nid3:13 nid3:3 0.0224
*END

*D_NET net_130 0.2255
*CONN
*I inst_161:ZN O
*I inst_90:B I
*CAP
1 inst_161:ZN 0.0166
2 inst_90:B 0.0166
3 net_130:1 0.0184
4 net_130:2 0.0184
5 net_130:3 0.0701
6 net_130:4 0.0701
7 net_130:5 0.0152
*RES
2 inst_161:ZN net_130:5 0.0050
3 net_130:1 inst_90:B 0.0050
4 net_130:2 net_130:1 0.0010
5 net_130:3 net_130:2 0.0050
6 net_130:3 net_130:4 0.0034
7 net_130:5 net_130:4 0.0050
*END

*D_NET nic3 1.0373
*CONN
*P nic3 I
*I inst_126:A1 I
*CAP
1 nic3 0.2855
2 inst_126:A1 0.0166
3 nic3:1 0.2931
4 nic3:2 0.1641
5 nic3:3 0.1641
6 nic3:4 0.0570
7 nic3:5 0.0570
*RES
2 inst_126:A1 nic3:5 0.0050
3 nic3:1 nic3 0.0205
4 nic3:2 nic3:1 0.0050
5 nic3:2 nic3:3 0.0103
6 nic3:4 nic3:3 0.0050
7 nic3:5 nic3:4 0.0035
*END

*D_NET nod26 1.2318
*CONN
*I inst_86:ZN O
*P nod26 O
*CAP
1 nod26 0.0018
2 inst_86:ZN 0.0143
3 nod26:1 0.0227
4 nod26:2 0.0152
5 nod26:3 0.5443
6 nod26:4 0.5481
7 nod26:5 0.0456
8 nod26:6 0.0398
*RES
2 inst_86:ZN nod26:1 0.0021
3 nod26:2 nod26:1 0.0050
4 nod26:3 nod26:2 0.0050
5 nod26:3 nod26:4 0.0522
6 nod26:5 nod26:4 0.0050
7 nod26:6 nod26 0.0010
8 nod26:6 nod26:5 0.0041
*END

*D_NET nid26 1.6756
*CONN
*P nid26 I
*I inst_13:B I
*I inst_19:B I
*I inst_86:A I
*CAP
1 nid26 0.0130
2 inst_13:B 0.0166
3 inst_19:B 0.0332
4 inst_86:A 0.0166
5 nid26:1 0.0126
6 nid26:2 0.0565
7 nid26:3 0.0645
8 nid26:4 0.0645
9 nid26:5 0.0178
10 nid26:6 0.0178
11 nid26:7 0.0498
12 nid26:8 0.0460
13 nid26:9 0.1050
14 nid26:10 0.1050
15 nid26:11 0.0213
16 nid26:12 0.0213
17 nid26:13 0.1514
18 nid26:14 0.1514
19 nid26:15 0.0298
20 nid26:16 0.0298
21 nid26:17 0.0206
22 nid26:18 0.0255
23 nid26:19 0.2001
24 nid26:20 0.1937
25 nid26:21 0.0660
26 nid26:22 0.0660
27 nid26:23 0.0143
28 nid26:24 0.0143
29 nid26:25 0.0515
*RES
2 nid26 nid26:17 0.0010
3 inst_19:B nid26:7 0.0050
4 nid26:1 inst_13:B 0.0050
5 nid26:1 nid26:2 0.0010
6 nid26:2 nid26:25 0.0040
7 nid26:2 nid26:3 0.0050
8 nid26:3 nid26:4 0.0047
9 nid26:4 nid26:5 0.0050
10 nid26:6 inst_19:B 0.0050
11 nid26:6 nid26:5 0.0010
12 nid26:8 nid26:7 0.0030
13 nid26:8 nid26:9 0.0050
14 nid26:9 nid26:10 0.0109
15 nid26:10 nid26:11 0.0050
16 nid26:12 nid26:11 0.0010
17 nid26:12 nid26:13 0.0050
18 nid26:13 nid26:14 0.0122
19 nid26:14 nid26:15 0.0050
20 nid26:16 inst_86:A 0.0050
21 nid26:16 nid26:15 0.0020
22 nid26:18 nid26:17 0.0050
23 nid26:19 nid26:18 0.0010
24 nid26:19 nid26:20 0.0176
25 nid26:21 nid26:20 0.0050
26 nid26:22 nid26:21 0.0019
27 nid26:23 nid26:22 0.0050
28 nid26:23 nid26:24 0.0010
29 nid26:25 nid26:24 0.0050
*END

*D_NET nid23 1.0675
*CONN
*P nid23 I
*I inst_0:A I
*I inst_24:A I
*I inst_89:A I
*CAP
1 nid23 0.0130
2 inst_0:A 0.0166
3 inst_24:A 0.0332
4 inst_89:A 0.0166
5 nid23:1 0.0277
6 nid23:2 0.0754
7 nid23:3 0.0520
8 nid23:4 0.0520
9 nid23:5 0.0152
10 nid23:6 0.0206
11 nid23:7 0.0193
12 nid23:8 0.2908
13 nid23:9 0.2867
14 nid23:10 0.0447
15 nid23:11 0.0447
16 nid23:12 0.0591
*RES
2 nid23 nid23:6 0.0010
3 inst_24:A nid23:11 0.0050
4 nid23:1 inst_89:A 0.0050
5 nid23:1 nid23:2 0.0015
6 nid23:2 nid23:12 0.0035
7 nid23:2 nid23:3 0.0050
8 nid23:4 nid23:3 0.0027
9 nid23:4 nid23:5 0.0050
10 nid23:5 inst_0:A 0.0050
11 nid23:7 nid23:6 0.0050
12 nid23:8 nid23:7 0.0010
13 nid23:8 nid23:9 0.0265
14 nid23:10 nid23:9 0.0050
15 nid23:11 nid23:10 0.0035
16 nid23:12 inst_24:A 0.0050
*END

*D_NET net_127 0.1505
*CONN
*I inst_159:ZN O
*I inst_89:B I
*CAP
1 inst_159:ZN 0.0251
2 inst_89:B 0.0166
3 net_127:1 0.0274
4 net_127:2 0.0261
5 net_127:3 0.0178
6 net_127:4 0.0375
*RES
2 net_127:1 inst_89:B 0.0050
3 net_127:1 net_127:2 0.0014
4 net_127:2 net_127:3 0.0010
5 net_127:4 inst_159:ZN 0.0031
6 net_127:4 net_127:3 0.0050
*END

*D_NET net_14 0.1575
*CONN
*I inst_5:Z O
*I inst_46:A I
*CAP
1 inst_5:Z 0.0166
2 inst_46:A 0.0166
3 net_14:1 0.0167
4 net_14:2 0.0167
5 net_14:3 0.0378
6 net_14:4 0.0378
7 net_14:5 0.0152
*RES
2 inst_5:Z net_14:5 0.0050
3 net_14:1 inst_46:A 0.0050
4 net_14:1 net_14:2 0.0010
5 net_14:3 net_14:2 0.0050
6 net_14:4 net_14:3 0.0027
7 net_14:5 net_14:4 0.0050
*END

*D_NET nid9 3.5028
*CONN
*P nid9 I
*I inst_5:A I
*I inst_11:A I
*I inst_74:A I
*CAP
1 nid9 0.0619
2 inst_5:A 0.0166
3 inst_11:A 0.0332
4 inst_74:A 0.0166
5 nid9:1 0.0163
6 nid9:2 0.0163
7 nid9:3 0.0625
8 nid9:4 0.0655
9 nid9:5 0.0106
10 nid9:6 0.1234
11 nid9:7 0.1196
12 nid9:8 0.0176
13 nid9:9 0.0176
14 nid9:10 0.1847
15 nid9:11 0.1847
16 nid9:12 0.0308
17 nid9:13 0.0308
18 nid9:14 0.1214
19 nid9:15 0.1214
20 nid9:16 0.0448
21 nid9:17 0.0448
22 nid9:18 0.0733
23 nid9:19 0.0104
24 nid9:20 0.0104
25 nid9:21 0.0385
26 nid9:22 0.0385
27 nid9:23 0.3212
28 nid9:24 0.3212
29 nid9:25 0.6109
30 nid9:26 0.6193
31 nid9:27 0.0631
32 nid9:28 0.0547
*RES
2 nid9 nid9:18 0.0051
3 inst_11:A nid9:17 0.0050
4 nid9:1 inst_5:A 0.0050
5 nid9:1 nid9:2 0.0010
6 nid9:3 nid9:2 0.0050
7 nid9:3 nid9:4 0.0079
8 nid9:4 nid9:5 0.0010
9 nid9:5 nid9:6 0.0050
10 nid9:6 nid9:7 0.0095
11 nid9:7 inst_11:A 0.0050
12 nid9:8 inst_74:A 0.0050
13 nid9:9 nid9:8 0.0010
14 nid9:10 nid9:9 0.0050
15 nid9:11 nid9:10 0.0191
16 nid9:12 nid9:11 0.0050
17 nid9:13 nid9:12 0.0010
18 nid9:14 nid9:13 0.0050
19 nid9:15 nid9:14 0.0094
20 nid9:16 nid9:15 0.0050
21 nid9:17 nid9:16 0.0025
22 nid9:19 nid9:18 0.0050
23 nid9:19 nid9:20 0.0010
24 nid9:21 nid9:20 0.0050
25 nid9:21 nid9:22 0.0011
26 nid9:23 nid9:22 0.0050
27 nid9:23 nid9:24 0.0330
28 nid9:25 nid9:24 0.0050
29 nid9:25 nid9:26 0.0199
30 nid9:26 nid9:27 0.0010
31 nid9:27 nid9:28 0.0021
32 nid9:28 nid9:4 0.0050
*END

*D_NET net_113 0.1467
*CONN
*I inst_151:ZN O
*I inst_86:B I
*CAP
1 inst_151:ZN 0.0166
2 inst_86:B 0.0166
3 net_113:1 0.0567
4 net_113:2 0.0567
*RES
2 inst_151:ZN net_113:2 0.0050
3 net_113:1 inst_86:B 0.0050
4 net_113:2 net_113:1 0.0045
*END

*D_NET net_26 0.1496
*CONN
*I inst_30:ZN O
*I inst_36:B I
*CAP
1 inst_30:ZN 0.0166
2 inst_36:B 0.0166
3 net_26:1 0.0171
4 net_26:2 0.0171
5 net_26:3 0.0334
6 net_26:4 0.0334
7 net_26:5 0.0152
*RES
2 inst_36:B net_26:5 0.0050
3 net_26:1 inst_30:ZN 0.0050
4 net_26:1 net_26:2 0.0010
5 net_26:3 net_26:2 0.0050
6 net_26:3 net_26:4 0.0027
7 net_26:5 net_26:4 0.0050
*END

*D_NET net_76 0.3171
*CONN
*I inst_133:ZN O
*I inst_118:A3 I
*CAP
1 inst_133:ZN 0.0166
2 inst_118:A3 0.0166
3 net_76:1 0.0291
4 net_76:2 0.0314
5 net_76:3 0.1128
6 net_76:4 0.1105
*RES
2 inst_118:A3 net_76:4 0.0050
3 net_76:1 inst_133:ZN 0.0050
4 net_76:2 net_76:1 0.0015
5 net_76:2 net_76:3 0.0010
6 net_76:4 net_76:3 0.0080
*END

*D_NET nid7 3.8432
*CONN
*P nid7 I
*I inst_8:A I
*I inst_29:A I
*I inst_76:A I
*CAP
1 nid7 0.0308
2 inst_8:A 0.0166
3 inst_29:A 0.0166
4 inst_76:A 0.0166
5 nid7:1 0.0179
6 nid7:2 0.0179
7 nid7:3 0.3667
8 nid7:4 0.0669
9 nid7:5 0.1112
10 nid7:6 0.1112
11 nid7:7 0.0608
12 nid7:8 0.0646
13 nid7:9 0.0213
14 nid7:10 0.0213
15 nid7:11 0.1543
16 nid7:12 0.5064
17 nid7:13 0.0173
18 nid7:14 0.0173
19 nid7:15 0.0993
20 nid7:16 0.0993
21 nid7:17 0.3075
22 nid7:18 0.0422
23 nid7:19 0.0134
24 nid7:20 0.0134
25 nid7:21 0.6363
26 nid7:22 0.6363
27 nid7:23 0.3596
*RES
2 nid7 nid7:18 0.0031
3 nid7:1 inst_8:A 0.0050
4 nid7:1 nid7:2 0.0010
5 nid7:3 nid7:2 0.0050
6 nid7:3 nid7:17 0.0258
7 nid7:4 nid7:3 0.0036
8 nid7:5 nid7:4 0.0050
9 nid7:6 nid7:5 0.0050
10 nid7:7 nid7:6 0.0050
11 nid7:8 nid7:7 0.0073
12 nid7:9 nid7:8 0.0050
13 nid7:10 nid7:9 0.0010
14 nid7:11 nid7:10 0.0050
15 nid7:12 nid7:11 0.0129
16 nid7:12 nid7:13 0.0050
17 nid7:13 nid7:14 0.0010
18 nid7:14 inst_29:A 0.0050
19 nid7:15 inst_76:A 0.0050
20 nid7:16 nid7:15 0.0080
21 nid7:17 nid7:16 0.0050
22 nid7:19 nid7:18 0.0050
23 nid7:19 nid7:20 0.0010
24 nid7:21 nid7:20 0.0050
25 nid7:21 nid7:22 0.0212
26 nid7:23 nid7:12 0.0219
27 nid7:23 nid7:22 0.0050
*END

*D_NET net_101 0.1448
*CONN
*I inst_142:ZN O
*I inst_78:B I
*CAP
1 inst_142:ZN 0.0166
2 inst_78:B 0.0166
3 net_101:1 0.0558
4 net_101:2 0.0558
*RES
2 inst_78:B net_101:2 0.0050
3 net_101:1 inst_142:ZN 0.0050
4 net_101:1 net_101:2 0.0035
*END

*D_NET net_32 0.1062
*CONN
*I inst_18:Z O
*I inst_41:A I
*CAP
1 inst_18:Z 0.0166
2 inst_41:A 0.0166
3 net_32:1 0.0365
4 net_32:2 0.0365
*RES
2 inst_18:Z net_32:2 0.0050
3 net_32:1 inst_41:A 0.0050
4 net_32:2 net_32:1 0.0025
*END

*D_NET nic6 0.5855
*CONN
*P nic6 I
*I inst_124:A1 I
*CAP
1 nic6 0.1126
2 inst_124:A1 0.0166
3 nic6:1 0.1189
4 nic6:2 0.0993
5 nic6:3 0.1006
6 nic6:4 0.0139
7 nic6:5 0.0139
8 nic6:6 0.0207
9 nic6:7 0.0207
10 nic6:8 0.0152
11 nic6:9 0.0284
12 nic6:10 0.0246
*RES
2 inst_124:A1 nic6:10 0.0050
3 nic6:1 nic6 0.0105
4 nic6:2 nic6:1 0.0010
5 nic6:3 nic6:2 0.0080
6 nic6:4 nic6:3 0.0050
7 nic6:4 nic6:5 0.0010
8 nic6:6 nic6:5 0.0050
9 nic6:7 nic6:6 0.0010
10 nic6:8 nic6:7 0.0050
11 nic6:9 nic6:8 0.0050
12 nic6:10 nic6:9 0.0018
*END

*D_NET net_111 0.1932
*CONN
*I inst_150:ZN O
*I inst_85:B I
*CAP
1 inst_150:ZN 0.0166
2 inst_85:B 0.0166
3 net_111:1 0.0701
4 net_111:2 0.0724
5 net_111:3 0.0175
*RES
2 inst_85:B net_111:3 0.0050
3 net_111:1 inst_150:ZN 0.0050
4 net_111:1 net_111:2 0.0079
5 net_111:2 net_111:3 0.0010
*END

*D_NET net_90 0.7153
*CONN
*I inst_131:ZN O
*I inst_133:A2 I
*I inst_111:A2 I
*I inst_117:A1 I
*CAP
1 inst_131:ZN 0.0166
2 inst_133:A2 0.0292
3 inst_111:A2 0.0166
4 inst_117:A1 0.0166
5 net_90:1 0.0375
6 net_90:2 0.0529
7 net_90:3 0.0640
8 net_90:4 0.1286
9 net_90:5 0.1843
10 net_90:6 0.0206
11 net_90:7 0.0206
12 net_90:8 0.0186
13 net_90:9 0.0229
14 net_90:10 0.0229
15 net_90:11 0.0633
*RES
2 inst_133:A2 net_90:1 0.0041
3 net_90:2 net_90:1 0.0050
4 net_90:2 net_90:3 0.0035
5 net_90:3 net_90:8 0.0010
6 net_90:4 net_90:3 0.0050
7 net_90:4 net_90:5 0.0122
8 net_90:5 net_90:11 0.0047
9 net_90:5 net_90:6 0.0050
10 net_90:6 net_90:7 0.0010
11 net_90:7 inst_111:A2 0.0050
12 net_90:8 inst_117:A1 0.0050
13 net_90:9 inst_131:ZN 0.0050
14 net_90:9 net_90:10 0.0015
15 net_90:11 net_90:10 0.0050
*END

*D_NET net_40 0.2263
*CONN
*I inst_33:ZN O
*I inst_69:A I
*CAP
1 inst_33:ZN 0.0146
2 inst_69:A 0.0166
3 net_40:1 0.0229
4 net_40:2 0.0861
5 net_40:3 0.0861
*RES
2 inst_33:ZN net_40:1 0.0021
3 inst_69:A net_40:3 0.0050
4 net_40:2 net_40:1 0.0050
5 net_40:3 net_40:2 0.0110
*END

*D_NET nod7 0.6396
*CONN
*I inst_76:ZN O
*P nod7 O
*CAP
1 nod7 0.0018
2 inst_76:ZN 0.0076
3 nod7:1 0.0201
4 nod7:2 0.0467
5 nod7:3 0.0467
6 nod7:4 0.2104
7 nod7:5 0.2142
8 nod7:6 0.0489
9 nod7:7 0.0431
*RES
2 inst_76:ZN nod7:1 0.0010
3 nod7:2 nod7:1 0.0050
4 nod7:2 nod7:3 0.0035
5 nod7:4 nod7:3 0.0050
6 nod7:4 nod7:5 0.0224
7 nod7:6 nod7:5 0.0050
8 nod7:6 nod7:7 0.0044
9 nod7:7 nod7 0.0010
*END

*D_NET net_100 0.7842
*CONN
*I inst_110:ZN O
*I inst_138:A2 I
*I inst_139:A2 I
*I inst_142:A2 I
*I inst_158:A2 I
*CAP
1 inst_110:ZN 0.0166
2 inst_138:A2 0.0073
3 inst_139:A2 0.0226
4 inst_142:A2 0.0072
5 inst_158:A2 0.0677
6 net_100:1 0.0156
7 net_100:2 0.0964
8 net_100:3 0.1002
9 net_100:4 0.0986
10 net_100:5 0.0986
11 net_100:6 0.0152
12 net_100:7 0.0862
13 net_100:8 0.0155
14 net_100:9 0.0664
15 net_100:10 0.0702
*RES
2 inst_139:A2 net_100:7 0.0031
3 inst_158:A2 net_100:6 0.0050
4 net_100:1 inst_138:A2 0.0010
5 net_100:2 net_100:1 0.0050
6 net_100:2 net_100:3 0.0100
7 net_100:3 net_100:8 0.0050
8 net_100:4 net_100:3 0.0050
9 net_100:5 net_100:4 0.0041
10 net_100:6 net_100:5 0.0050
11 net_100:7 inst_158:A2 0.0093
12 net_100:8 inst_142:A2 0.0010
13 net_100:9 inst_110:ZN 0.0050
14 net_100:9 net_100:10 0.0080
15 net_100:10 net_100:7 0.0050
*END

*D_NET nod4 0.6314
*CONN
*I inst_79:ZN O
*P nod4 O
*CAP
1 nod4 0.0018
2 inst_79:ZN 0.0281
3 nod4:1 0.0364
4 nod4:2 0.0299
5 nod4:3 0.0299
6 nod4:4 0.2350
7 nod4:5 0.2388
8 nod4:6 0.0186
9 nod4:7 0.0128
*RES
2 inst_79:ZN nod4:1 0.0031
3 nod4:2 nod4:1 0.0050
4 nod4:3 nod4:2 0.0015
5 nod4:4 nod4:3 0.0050
6 nod4:4 nod4:5 0.0244
7 nod4:6 nod4:5 0.0050
8 nod4:6 nod4:7 0.0012
9 nod4:7 nod4 0.0010
*END

*D_NET net_85 0.4011
*CONN
*I inst_135:ZN O
*I inst_137:A2 I
*I inst_122:A3 I
*CAP
1 inst_135:ZN 0.0322
2 inst_137:A2 0.0166
3 inst_122:A3 0.0315
4 net_85:1 0.0324
5 net_85:2 0.0217
6 net_85:3 0.0456
7 net_85:4 0.0456
8 net_85:5 0.0366
9 net_85:6 0.0366
10 net_85:7 0.0398
11 net_85:8 0.0405
12 net_85:9 0.0220
*RES
2 inst_122:A3 net_85:7 0.0031
3 net_85:1 inst_137:A2 0.0050
4 net_85:1 net_85:9 0.0010
5 net_85:2 net_85:1 0.0010
6 net_85:2 net_85:3 0.0050
7 net_85:4 net_85:3 0.0020
8 net_85:4 net_85:5 0.0050
9 net_85:6 net_85:5 0.0020
10 net_85:6 net_85:7 0.0050
11 net_85:8 inst_135:ZN 0.0062
12 net_85:9 net_85:8 0.0050
*END

*D_NET net_69 0.6433
*CONN
*I inst_61:ZN O
*I inst_65:B I
*CAP
1 inst_61:ZN 0.0166
2 inst_65:B 0.0166
3 net_69:1 0.0225
4 net_69:2 0.0225
5 net_69:3 0.2661
6 net_69:4 0.2661
7 net_69:5 0.0164
8 net_69:6 0.0164
*RES
2 inst_65:B net_69:6 0.0050
3 net_69:1 inst_61:ZN 0.0050
4 net_69:1 net_69:2 0.0015
5 net_69:3 net_69:2 0.0050
6 net_69:3 net_69:4 0.0224
7 net_69:5 net_69:4 0.0050
8 net_69:6 net_69:5 0.0010
*END

*D_NET net_124 0.7369
*CONN
*I inst_111:ZN O
*I inst_144:A2 I
*I inst_149:A2 I
*I inst_157:A2 I
*I inst_167:A2 I
*CAP
1 inst_111:ZN 0.0854
2 inst_144:A2 0.0073
3 inst_149:A2 0.0441
4 inst_157:A2 0.0316
5 inst_167:A2 0.0812
6 net_124:1 0.0152
7 net_124:2 0.0120
8 net_124:3 0.0120
9 net_124:4 0.0763
10 net_124:5 0.0763
11 net_124:6 0.0632
12 net_124:7 0.0632
13 net_124:8 0.0434
14 net_124:9 0.0434
15 net_124:10 0.0156
16 net_124:11 0.0333
17 net_124:12 0.0333
*RES
2 inst_111:ZN inst_167:A2 0.0093
3 inst_111:ZN net_124:1 0.0050
4 inst_157:A2 inst_149:A2 0.0041
5 net_124:1 net_124:2 0.0050
6 net_124:3 net_124:2 0.0010
7 net_124:3 net_124:4 0.0050
8 net_124:4 net_124:5 0.0019
9 net_124:5 net_124:6 0.0050
10 net_124:7 net_124:6 0.0045
11 net_124:7 net_124:8 0.0050
12 net_124:8 net_124:9 0.0045
13 net_124:9 inst_149:A2 0.0050
14 net_124:10 inst_144:A2 0.0010
15 net_124:11 net_124:10 0.0050
16 net_124:12 inst_167:A2 0.0050
17 net_124:12 net_124:11 0.0035
*END

*D_NET nid5 2.8289
*CONN
*P nid5 I
*I inst_21:A I
*I inst_22:A I
*I inst_78:A I
*CAP
1 nid5 0.0152
2 inst_21:A 0.0166
3 inst_22:A 0.0166
4 inst_78:A 0.0166
5 nid5:1 0.0350
6 nid5:2 0.0350
7 nid5:3 0.3098
8 nid5:4 0.0615
9 nid5:5 0.1626
10 nid5:6 0.2455
11 nid5:7 0.0899
12 nid5:8 0.3949
13 nid5:9 0.3952