*SPEF "IEEE 1481-1998"
*DESIGN "changes"
*DATE "Tue Dec 02 19:00:23 2014"
*VENDOR "TAU 2015 Contest"
*PROGRAM "Benchmark Parasitic Generator"
*VERSION "0.0"
*DESIGN_FLOW "NETLIST_TYPE_VERILOG"
*DIVIDER /
*DELIMITER :
*BUS_DELIMITER [ ]
*T_UNIT 1 PS
*C_UNIT 1 FF
*R_UNIT 1 KOHM
*L_UNIT 1 UH

*D_NET nid1 4.5250
*CONN
*I TAUGATE_8:Z O
*I inst_22:B I
*I inst_104:A I
*I inst_10:A I
*CAP
1 TAUGATE_8:Z 0.2611
2 nid1:1 0.4098
3 nid1:2 0.5009
4 nid1:3 0.2843
5 inst_104:A 0.2878
6 nid1:4 0.4685
7 nid1:5 0.3070
8 nid1:6 0.3583
9 inst_22:B 0.1395
10 nid1:7 0.4644
11 nid1:8 0.4559
12 nid1:9 0.4050
13 nid1:10 0.0154
14 inst_10:A 0.1670
*RES
2 TAUGATE_8:Z nid1:1 0.1659
3 nid1:1 nid1:2 0.2742
4 nid1:2 nid1:3 0.3494
5 nid1:3 inst_104:A 0.1485
6 nid1:3 nid1:4 0.0646
7 nid1:4 nid1:5 0.0794
8 nid1:5 nid1:6 0.2161
9 nid1:6 inst_22:B 0.1614
10 nid1:4 nid1:7 0.1555
11 nid1:7 nid1:8 0.2440
12 nid1:8 nid1:9 0.0332
13 nid1:9 nid1:10 0.0406
14 nid1:10 inst_10:A 0.2732
*END

*D_NET TAUNET_9 0.8663
*CONN
*I inst_43:ZN O
*I TAUGATE_9:A I
*CAP
1 inst_43:ZN 0.1308
2 TAUNET_9:1 0.2909
3 TAUNET_9:2 0.3706
4 TAUGATE_9:A 0.0740
*RES
2 inst_43:ZN TAUNET_9:1 0.4871
3 TAUNET_9:1 TAUNET_9:2 0.4951
4 TAUNET_9:2 TAUGATE_9:A 0.4125
*END

*D_NET net_117 8.6319
*CONN
*I TAUGATE_5:Z O
*I inst_131:A1 I
*I inst_153:A1 I
*I inst_107:A1 I
*I inst_146:A1 I
*I inst_108:A2 I
*I inst_152:A1 I
*I inst_163:A1 I
*CAP
1 TAUGATE_5:Z 0.1285
2 net_117:1 0.2926
3 inst_131:A1 0.4507
4 net_117:2 0.0305
5 net_117:3 0.2383
6 net_117:4 0.4020
7 net_117:5 0.2529
8 inst_153:A1 0.2665
9 net_117:6 0.2236
10 inst_107:A1 0.1922
11 net_117:7 0.4680
12 net_117:8 0.2976
13 net_117:9 0.2331
14 net_117:10 0.2927
15 net_117:11 0.3943
16 inst_146:A1 0.2211
17 net_117:12 0.4792
18 net_117:13 0.1808
19 net_117:14 0.0717
20 inst_108:A2 0.3990
21 net_117:15 0.4976
22 net_117:16 0.3591
23 net_117:17 0.2780
24 net_117:18 0.2022
25 inst_152:A1 0.1593
26 net_117:19 0.0632
27 net_117:20 0.2503
28 net_117:21 0.4700
29 net_117:22 0.3789
30 net_117:23 0.3545
31 inst_163:A1 0.1033
*RES
2 TAUGATE_5:Z net_117:1 0.3356
3 net_117:1 inst_131:A1 0.3995
4 net_117:1 net_117:2 0.4354
5 net_117:2 net_117:3 0.1977
6 net_117:3 net_117:4 0.0788
7 net_117:4 net_117:5 0.3276
8 net_117:5 inst_153:A1 0.3833
9 net_117:4 net_117:6 0.2805
10 net_117:6 inst_107:A1 0.1322
11 net_117:2 net_117:7 0.1955
12 net_117:7 net_117:8 0.1868
13 net_117:8 net_117:9 0.4889
14 net_117:9 net_117:10 0.0703
15 net_117:10 net_117:11 0.3298
16 net_117:11 inst_146:A1 0.4131
17 net_117:7 net_117:12 0.4035
18 net_117:12 net_117:13 0.0219
19 net_117:13 net_117:14 0.0830
20 net_117:14 inst_108:A2 0.4539
21 net_117:3 net_117:15 0.4382
22 net_117:15 net_117:16 0.3498
23 net_117:16 net_117:17 0.4055
24 net_117:17 net_117:18 0.4519
25 net_117:18 inst_152:A1 0.4658
26 net_117:14 net_117:19 0.4316
27 net_117:19 net_117:20 0.1782
28 net_117:20 net_117:21 0.4734
29 net_117:21 net_117:22 0.0376
30 net_117:22 net_117:23 0.0972
31 net_117:23 inst_163:A1 0.3594
*END

*D_NET net_44 1.4515
*CONN
*I TAUGATE_9:Z O
*I inst_68:A I
*CAP
1 TAUGATE_9:Z 0.3248
2 net_44:1 0.1267
3 net_44:2 0.3840
4 net_44:3 0.2434
5 inst_68:A 0.3726
*RES
2 TAUGATE_9:Z net_44:1 0.2980
3 net_44:1 net_44:2 0.2454
4 net_44:2 net_44:3 0.4670
5 net_44:3 inst_68:A 0.1921
*END

*D_NET nid15 2.5582
*CONN
*I TAUGATE_6:Z O
*I inst_31:A I
*I inst_3:A I
*I inst_98:A I
*CAP
1 TAUGATE_6:Z 0.4443
2 nid15:1 0.3022
3 nid15:2 0.1405
4 inst_31:A 0.0668
5 nid15:3 0.0282
6 nid15:4 0.3089
7 nid15:5 0.0253
8 nid15:6 0.3105
9 inst_3:A 0.1881
10 nid15:7 0.3854
11 inst_98:A 0.3580
*RES
2 TAUGATE_6:Z nid15:1 0.3699
3 nid15:1 nid15:2 0.4131
4 nid15:2 inst_31:A 0.4004
5 nid15:1 nid15:3 0.2034
6 nid15:3 nid15:4 0.1592
7 nid15:4 nid15:5 0.3147
8 nid15:5 nid15:6 0.2761
9 nid15:6 inst_3:A 0.3643
10 nid15:3 nid15:7 0.3774
11 nid15:7 inst_98:A 0.2731
*END

*D_NET TAUNET_5 1.1096
*CONN
*I inst_67:ZN O
*I TAUGATE_5:A I
*CAP
1 inst_67:ZN 0.0518
2 TAUNET_5:1 0.2154
3 TAUNET_5:2 0.4921
4 TAUNET_5:3 0.1648
5 TAUGATE_5:A 0.1855
*RES
2 inst_67:ZN TAUNET_5:1 0.0112
3 TAUNET_5:1 TAUNET_5:2 0.3530
4 TAUNET_5:2 TAUNET_5:3 0.1128
5 TAUNET_5:3 TAUGATE_5:A 0.2239
*END

*D_NET TAUNET_8 0.9170
*CONN
*P nid1 I
*I TAUGATE_8:A I
*CAP
1 nid1 0.4230
2 TAUNET_8:1 0.3290
3 TAUNET_8:2 0.1620
4 TAUGATE_8:A 0.0029
*RES
2 nid1 TAUNET_8:1 0.2883
3 TAUNET_8:1 TAUNET_8:2 0.1903
4 TAUNET_8:2 TAUGATE_8:A 0.4381
*END

*D_NET net_0 0.3519
*CONN
*I TAUGATE_7:Z O
*I inst_61:B I
*CAP
1 TAUGATE_7:Z 0.0801
2 net_0:1 0.1891
3 net_0:2 0.0464
4 inst_61:B 0.0364
*RES
2 TAUGATE_7:Z net_0:1 0.0279
3 net_0:1 net_0:2 0.4104
4 net_0:2 inst_61:B 0.0649
*END

*D_NET TAUNET_6 1.2069
*CONN
*P nid15 I
*I TAUGATE_6:A I
*CAP
1 nid15 0.1600
2 TAUNET_6:1 0.4787
3 TAUNET_6:2 0.1076
4 TAUGATE_6:A 0.4606
*RES
2 nid15 TAUNET_6:1 0.3388
3 TAUNET_6:1 TAUNET_6:2 0.4657
4 TAUNET_6:2 TAUGATE_6:A 0.3595
*END

*D_NET TAUNET_7 0.4962
*CONN
*I inst_123:ZN O
*I TAUGATE_7:A I
*CAP
1 inst_123:ZN 0.0832
2 TAUNET_7:1 0.3736
3 TAUGATE_7:A 0.0395
*RES
2 inst_123:ZN TAUNET_7:1 0.3644
3 TAUNET_7:1 TAUGATE_7:A 0.0829
*END

