*SPEF "IEEE 1481-1998"
*DESIGN "changes"
*DATE "Tue Dec 02 19:00:24 2014"
*VENDOR "TAU 2015 Contest"
*PROGRAM "Benchmark Parasitic Generator"
*VERSION "0.0"
*DESIGN_FLOW "NETLIST_TYPE_VERILOG"
*DIVIDER /
*DELIMITER :
*BUS_DELIMITER [ ]
*T_UNIT 1 PS
*C_UNIT 1 FF
*R_UNIT 1 KOHM
*L_UNIT 1 UH

*D_NET net_47 1.7439
*CONN
*I TAUGATE_270:Z O
*I inst_66:A I
*CAP
1 TAUGATE_270:Z 0.2611
2 net_47:1 0.4098
3 net_47:2 0.5009
4 net_47:3 0.2843
5 inst_66:A 0.2878
*RES
2 TAUGATE_270:Z net_47:1 0.1659
3 net_47:1 net_47:2 0.2742
4 net_47:2 net_47:3 0.3494
5 net_47:3 inst_66:A 0.1485
*END

*D_NET TAUNET_275 1.3760
*CONN
*I inst_135:ZN O
*I TAUGATE_275:A I
*CAP
1 inst_135:ZN 0.2110
2 TAUNET_275:1 0.3070
3 TAUNET_275:2 0.3583
4 TAUNET_275:3 0.1395
5 TAUNET_275:4 0.0646
6 TAUNET_275:5 0.0794
7 TAUGATE_275:A 0.2161
*RES
2 inst_135:ZN TAUNET_275:1 0.1614
3 TAUNET_275:1 TAUNET_275:2 0.3312
4 TAUNET_275:2 TAUNET_275:3 0.3755
5 TAUNET_275:3 TAUNET_275:4 0.4644
6 TAUNET_275:4 TAUNET_275:5 0.4559
7 TAUNET_275:5 TAUGATE_275:A 0.4050
*END

*D_NET TAUNET_114 0.4849
*CONN
*P nic4 I
*I TAUGATE_114:A I
*CAP
1 nic4 0.1670
2 TAUNET_114:1 0.2440
3 TAUNET_114:2 0.0332
4 TAUGATE_114:A 0.0406
*RES
2 nic4 TAUNET_114:1 0.2732
3 TAUNET_114:1 TAUNET_114:2 0.0073
4 TAUNET_114:2 TAUGATE_114:A 0.1308
*END

*D_NET net_54 3.2076
*CONN
*I TAUGATE_94:Z O
*I inst_55:B I
*I inst_50:B I
*CAP
1 TAUGATE_94:Z 0.2909
2 net_54:1 0.0740
3 net_54:2 0.4871
4 net_54:3 0.4951
5 net_54:4 0.4125
6 inst_55:B 0.0565
7 net_54:5 0.4708
8 net_54:6 0.3056
9 net_54:7 0.3464
10 net_54:8 0.0305
11 inst_50:B 0.2383
*RES
2 TAUGATE_94:Z net_54:1 0.1285
3 net_54:1 net_54:2 0.0292
4 net_54:2 net_54:3 0.2926
5 net_54:3 net_54:4 0.4507
6 net_54:4 inst_55:B 0.3356
7 net_54:4 net_54:5 0.4020
8 net_54:5 net_54:6 0.2529
9 net_54:6 net_54:7 0.2665
10 net_54:7 net_54:8 0.4354
11 net_54:8 inst_50:B 0.1977
*END

*D_NET TAUNET_232 1.4247
*CONN
*I inst_4:Z O
*I TAUGATE_232:A I
*CAP
1 inst_4:Z 0.3276
2 TAUNET_232:1 0.3292
3 TAUNET_232:2 0.0716
4 TAUNET_232:3 0.2236
5 TAUNET_232:4 0.1922
6 TAUGATE_232:A 0.2805
*RES
2 inst_4:Z TAUNET_232:1 0.1322
3 TAUNET_232:1 TAUNET_232:2 0.1905
4 TAUNET_232:2 TAUNET_232:3 0.4017
5 TAUNET_232:3 TAUNET_232:4 0.4680
6 TAUNET_232:4 TAUGATE_232:A 0.2976
*END

*D_NET net_129 1.4553
*CONN
*I TAUGATE_179:Z O
*I inst_105:B I
*CAP
1 TAUGATE_179:Z 0.2927
2 net_129:1 0.2211
3 net_129:2 0.1955
4 net_129:3 0.1868
5 net_129:4 0.4889
6 inst_105:B 0.0703
*RES
2 TAUGATE_179:Z net_129:1 0.3298
3 net_129:1 net_129:2 0.4131
4 net_129:2 net_129:3 0.3310
5 net_129:3 net_129:4 0.2621
6 net_129:4 inst_105:B 0.4792
*END

*D_NET net_98 1.1591
*CONN
*I TAUGATE_312:Z O
*I inst_94:B I
*CAP
1 TAUGATE_312:Z 0.0717
2 net_98:1 0.4035
3 net_98:2 0.0219
4 net_98:3 0.0830
5 net_98:4 0.4539
6 inst_94:B 0.1250
*RES
2 TAUGATE_312:Z net_98:1 0.3196
3 net_98:1 net_98:2 0.4976
4 net_98:2 net_98:3 0.3591
5 net_98:3 net_98:4 0.2780
6 net_98:4 inst_94:B 0.2022
*END

*D_NET net_119 2.5322
*CONN
*I TAUGATE_162:Z O
*I inst_97:B I
*CAP
1 TAUGATE_162:Z 0.4382
2 net_119:1 0.4055
3 net_119:2 0.4519
4 net_119:3 0.4658
5 net_119:4 0.3690
6 inst_97:B 0.4019
*RES
2 TAUGATE_162:Z net_119:1 0.0632
3 net_119:1 net_119:2 0.2503
4 net_119:2 net_119:3 0.4700
5 net_119:3 net_119:4 0.3789
6 net_119:4 inst_97:B 0.3545
*END

*D_NET net_53 1.0398
*CONN
*I TAUGATE_221:Z O
*I inst_57:A I
*CAP
1 TAUGATE_221:Z 0.4316
2 net_53:1 0.4734
3 net_53:2 0.0376
4 inst_57:A 0.0972
*RES
2 TAUGATE_221:Z net_53:1 0.3594
3 net_53:1 net_53:2 0.0525
4 net_53:2 inst_57:A 0.3248
*END

*D_NET TAUNET_103 1.7532
*CONN
*P nic0 I
*I TAUGATE_103:A I
*CAP
1 nic0 0.1267
2 TAUNET_103:1 0.2434
3 TAUNET_103:2 0.3726
4 TAUNET_103:3 0.2980
5 TAUNET_103:4 0.2454
6 TAUGATE_103:A 0.4670
*RES
2 nic0 TAUNET_103:1 0.1921
3 TAUNET_103:1 TAUNET_103:2 0.1376
4 TAUNET_103:2 TAUNET_103:3 0.4443
5 TAUNET_103:3 TAUNET_103:4 0.1288
6 TAUNET_103:4 TAUGATE_103:A 0.3022
*END

*D_NET TAUNET_177 1.8873
*CONN
*I inst_35:ZN O
*I TAUGATE_177:A I
*CAP
1 inst_35:ZN 0.0668
2 TAUNET_177:1 0.4131
3 TAUNET_177:2 0.4004
4 TAUNET_177:3 0.4814
5 TAUNET_177:4 0.1341
6 TAUGATE_177:A 0.3915
*RES
2 inst_35:ZN TAUNET_177:1 0.0282
3 TAUNET_177:1 TAUNET_177:2 0.3089
4 TAUNET_177:2 TAUNET_177:3 0.0253
5 TAUNET_177:3 TAUNET_177:4 0.3105
6 TAUNET_177:4 TAUGATE_177:A 0.1881
*END

*D_NET TAUNET_31 1.4805
*CONN
*I TAUGATE_160:Z O
*I TAUGATE_31:A I
*CAP
1 TAUGATE_160:Z 0.1592
2 TAUNET_31:1 0.2761
3 TAUNET_31:2 0.3643
4 TAUNET_31:3 0.2288
5 TAUNET_31:4 0.0666
6 TAUGATE_31:A 0.3854
*RES
2 TAUGATE_160:Z TAUNET_31:1 0.3580
3 TAUNET_31:1 TAUNET_31:2 0.3774
4 TAUNET_31:2 TAUNET_31:3 0.2731
5 TAUNET_31:3 TAUNET_31:4 0.1525
6 TAUNET_31:4 TAUGATE_31:A 0.0518
*END

*D_NET TAUNET_91 1.2665
*CONN
*I inst_96:ZN O
*I TAUGATE_91:A I
*CAP
1 inst_96:ZN 0.2154
2 TAUNET_91:1 0.1648
3 TAUNET_91:2 0.1855
4 TAUNET_91:3 0.0112
5 TAUNET_91:4 0.3530
6 TAUNET_91:5 0.1128
7 TAUGATE_91:A 0.2239
*RES
2 inst_96:ZN TAUNET_91:1 0.0917
3 TAUNET_91:1 TAUNET_91:2 0.4230
4 TAUNET_91:2 TAUNET_91:3 0.1494
5 TAUNET_91:3 TAUNET_91:4 0.3290
6 TAUNET_91:4 TAUNET_91:5 0.1620
7 TAUNET_91:5 TAUGATE_91:A 0.0029
*END

*D_NET nid26 4.3062
*CONN
*I TAUGATE_116:Z O
*I inst_19:B I
*I inst_86:A I
*I inst_13:B I
*CAP
1 TAUGATE_116:Z 0.1903
2 nid26:1 0.3484
3 nid26:2 0.0801
4 nid26:3 0.1392
5 nid26:4 0.1891
6 nid26:5 0.0464
7 inst_86:A 0.0364
8 nid26:6 0.3388
9 nid26:7 0.4657
10 nid26:8 0.3595
11 nid26:9 0.2471
12 nid26:10 0.0832
13 inst_19:B 0.0580
14 nid26:11 0.4950
15 nid26:12 0.0413
16 nid26:13 0.4651
17 nid26:14 0.4065
18 inst_13:B 0.3164
*RES
2 TAUGATE_116:Z nid26:1 0.0279
3 nid26:1 nid26:2 0.4104
4 nid26:2 nid26:3 0.0649
5 nid26:3 nid26:4 0.0510
6 nid26:4 nid26:5 0.1600
7 nid26:5 inst_86:A 0.1748
8 nid26:1 nid26:6 0.3736
9 nid26:6 nid26:7 0.0395
10 nid26:7 nid26:8 0.3644
11 nid26:8 nid26:9 0.0829
12 nid26:9 nid26:10 0.1977
13 nid26:10 inst_19:B 0.4694
14 nid26:9 nid26:11 0.3513
15 nid26:11 nid26:12 0.1165
16 nid26:12 nid26:13 0.0986
17 nid26:13 nid26:14 0.2243
18 nid26:14 inst_13:B 0.1286
*END

*D_NET TAUNET_208 1.4306
*CONN
*I inst_111:ZN O
*I TAUGATE_208:A I
*CAP
1 inst_111:ZN 0.2482
2 TAUNET_208:1 0.1533
3 TAUNET_208:2 0.4091
4 TAUNET_208:3 0.2613
5 TAUGATE_208:A 0.3587
*RES
2 inst_111:ZN TAUNET_208:1 0.1869
3 TAUNET_208:1 TAUNET_208:2 0.4974
4 TAUNET_208:2 TAUNET_208:3 0.3047
5 TAUNET_208:3 TAUGATE_208:A 0.1200
*END

*D_NET TAUNET_9 0.5270
*CONN
*I TAUGATE_141:Z O
*I TAUGATE_9:A I
*CAP
1 TAUGATE_141:Z 0.1210
2 TAUNET_9:1 0.1014
3 TAUNET_9:2 0.0283
4 TAUGATE_9:A 0.2763
*RES
2 TAUGATE_141:Z TAUNET_9:1 0.2945
3 TAUNET_9:1 TAUNET_9:2 0.3177
4 TAUNET_9:2 TAUGATE_9:A 0.2101
*END

*D_NET TAUNET_128 1.4286
*CONN
*I inst_172:ZN O
*I TAUGATE_128:A I
*CAP
1 inst_172:ZN 0.2046
2 TAUNET_128:1 0.1317
3 TAUNET_128:2 0.3617
4 TAUNET_128:3 0.0856
5 TAUNET_128:4 0.3629
6 TAUGATE_128:A 0.2821
*RES
2 inst_172:ZN TAUNET_128:1 0.3900
3 TAUNET_128:1 TAUNET_128:2 0.0557
4 TAUNET_128:2 TAUNET_128:3 0.1253
5 TAUNET_128:3 TAUNET_128:4 0.2716
6 TAUNET_128:4 TAUGATE_128:A 0.3735
*END

*D_NET nid7 4.1977
*CONN
*I TAUGATE_230:Z O
*I inst_76:A I
*I inst_8:A I
*I inst_29:A I
*CAP
1 TAUGATE_230:Z 0.3323
2 nid7:1 0.0362
3 nid7:2 0.4966
4 nid7:3 0.4101
5 inst_76:A 0.2702
6 nid7:4 0.3090
7 nid7:5 0.3972
8 nid7:6 0.4228
9 nid7:7 0.2443
10 inst_8:A 0.2458
11 nid7:8 0.0472
12 nid7:9 0.4436
13 nid7:10 0.1981
14 nid7:11 0.3275
15 inst_29:A 0.0169
*RES
2 TAUGATE_230:Z nid7:1 0.2135
3 nid7:1 nid7:2 0.0419
4 nid7:2 nid7:3 0.2773
5 nid7:3 inst_76:A 0.0903
6 nid7:1 nid7:4 0.3734
7 nid7:4 nid7:5 0.1567
8 nid7:5 nid7:6 0.1247
9 nid7:6 nid7:7 0.2439
10 nid7:7 inst_8:A 0.2588
11 nid7:7 nid7:8 0.4026
12 nid7:8 nid7:9 0.4684
13 nid7:9 nid7:10 0.2490
14 nid7:10 nid7:11 0.0579
15 nid7:11 inst_29:A 0.0423
*END

*D_NET TAUNET_161 1.8957
*CONN
*I TAUGATE_57:Z O
*I TAUGATE_161:A I
*CAP
1 TAUGATE_57:Z 0.4278
2 TAUNET_161:1 0.4796
3 TAUNET_161:2 0.3740
4 TAUNET_161:3 0.1554
5 TAUNET_161:4 0.0209
6 TAUGATE_161:A 0.4380
*RES
2 TAUGATE_57:Z TAUNET_161:1 0.4130
3 TAUNET_161:1 TAUNET_161:2 0.4990
4 TAUNET_161:2 TAUNET_161:3 0.2134
5 TAUNET_161:3 TAUNET_161:4 0.1115
6 TAUNET_161:4 TAUGATE_161:A 0.4947
*END

*D_NET TAUNET_249 2.2597
*CONN
*I TAUGATE_23:Z O
*I TAUGATE_249:A I
*CAP
1 TAUGATE_23:Z 0.2854
2 TAUNET_249:1 0.2438
3 TAUNET_249:2 0.2969
4 TAUNET_249:3 0.3091
5 TAUNET_249:4 0.5006
6 TAUNET_249:5 0.2264
7 TAUGATE_249:A 0.3973
*RES
2 TAUGATE_23:Z TAUNET_249:1 0.2044
3 TAUNET_249:1 TAUNET_249:2 0.1531
4 TAUNET_249:2 TAUNET_249:3 0.3886
5 TAUNET_249:3 TAUNET_249:4 0.2618
6 TAUNET_249:4 TAUNET_249:5 0.2468
7 TAUNET_249:5 TAUGATE_249:A 0.4002
*END

*D_NET net_111 0.7125
*CONN
*I TAUGATE_326:Z O
*I inst_85:B I
*CAP
1 TAUGATE_326:Z 0.1857
2 net_111:1 0.0882
3 inst_85:B 0.4386
*RES
2 TAUGATE_326:Z net_111:1 0.2715
3 net_111:1 inst_85:B 0.0199
*END

*D_NET TAUNET_192 0.5520
*CONN
*I TAUGATE_53:Z O
*I TAUGATE_192:A I
*CAP
1 TAUGATE_53:Z 0.1459
2 TAUNET_192:1 0.1026
3 TAUNET_192:2 0.1939
4 TAUGATE_192:A 0.1095
*RES
2 TAUGATE_53:Z TAUNET_192:1 0.0212
3 TAUNET_192:1 TAUNET_192:2 0.1417
4 TAUNET_192:2 TAUGATE_192:A 0.2190
*END

*D_NET TAUNET_151 1.5644
*CONN
*P nic2 I
*I TAUGATE_151:A I
*CAP
1 nic2 0.1138
2 TAUNET_151:1 0.3663
3 TAUNET_151:2 0.2540
4 TAUNET_151:3 0.0526
5 TAUNET_151:4 0.2388
6 TAUNET_151:5 0.1787
7 TAUGATE_151:A 0.3603
*RES
2 nic2 TAUNET_151:1 0.0603
3 TAUNET_151:1 TAUNET_151:2 0.0863
4 TAUNET_151:2 TAUNET_151:3 0.3102
5 TAUNET_151:3 TAUNET_151:4 0.1239
6 TAUNET_151:4 TAUNET_151:5 0.2473
7 TAUNET_151:5 TAUGATE_151:A 0.0055
*END

*D_NET net_90 3.0444
*CONN
*I TAUGATE_126:Z O
*I inst_133:A2 I
*I inst_111:A2 I
*I inst_117:A1 I
*CAP
1 TAUGATE_126:Z 0.2412
2 net_90:1 0.4441
3 net_90:2 0.4218
4 net_90:3 0.0848
5 net_90:4 0.0266
6 inst_117:A1 0.0274
7 net_90:5 0.4317
8 net_90:6 0.1801
9 net_90:7 0.2826
10 net_90:8 0.3420
11 inst_111:A2 0.0965
12 net_90:9 0.0327
13 net_90:10 0.0608
14 inst_133:A2 0.3721
*RES
2 TAUGATE_126:Z net_90:1 0.4218
3 net_90:1 net_90:2 0.2061
4 net_90:2 net_90:3 0.2110
5 net_90:3 net_90:4 0.4583
6 net_90:4 inst_117:A1 0.3985
7 net_90:3 net_90:5 0.2555
8 net_90:5 net_90:6 0.1304
9 net_90:6 net_90:7 0.3675
10 net_90:7 net_90:8 0.4634
11 net_90:8 inst_111:A2 0.2869
12 net_90:3 net_90:9 0.4648
13 net_90:9 net_90:10 0.2376
14 net_90:10 inst_133:A2 0.1146
*END

*D_NET TAUNET_141 0.6447
*CONN
*I TAUGATE_39:Z O
*I TAUGATE_141:A I
*CAP
1 TAUGATE_39:Z 0.1439
2 TAUNET_141:1 0.2502
3 TAUGATE_141:A 0.2506
*RES
2 TAUGATE_39:Z TAUNET_141:1 0.4486
3 TAUNET_141:1 TAUGATE_141:A 0.0641
*END

*D_NET nod4 0.3299
*CONN
*I TAUGATE_171:Z O
*P nod4 O
*CAP
1 TAUGATE_171:Z 0.0079
2 nod4:1 0.2219
3 nod4 0.1001
*RES
2 TAUGATE_171:Z nod4:1 0.2747
3 nod4:1 nod4 0.1704
*END

*D_NET net_85 1.6596
*CONN
*I TAUGATE_275:Z O
*I inst_122:A3 I
*I inst_137:A2 I
*CAP
1 TAUGATE_275:Z 0.0121
2 net_85:1 0.0267
3 inst_122:A3 0.1278
4 net_85:2 0.2505
5 net_85:3 0.2036
6 net_85:4 0.3990
7 net_85:5 0.0185
8 net_85:6 0.3777
9 inst_137:A2 0.2437
*RES
2 TAUGATE_275:Z net_85:1 0.1079
3 net_85:1 inst_122:A3 0.3621
4 net_85:1 net_85:2 0.3641
5 net_85:2 net_85:3 0.1411
6 net_85:3 net_85:4 0.2452
7 net_85:4 net_85:5 0.2723
8 net_85:5 net_85:6 0.2079
9 net_85:6 inst_137:A2 0.2449
*END

*D_NET net_124 3.1375
*CONN
*I TAUGATE_225:Z O
*I inst_167:A2 I
*I inst_157:A2 I
*I inst_144:A2 I
*I inst_149:A2 I
*CAP
1 TAUGATE_225:Z 0.0917
2 net_124:1 0.0227
3 inst_167:A2 0.0264
4 net_124:2 0.0209
5 net_124:3 0.1182
6 net_124:4 0.1067
7 net_124:5 0.4881
8 inst_157:A2 0.3672
9 net_124:6 0.2325
10 net_124:7 0.2733
11 net_124:8 0.1266
12 net_124:9 0.3814
13 inst_144:A2 0.1363
14 net_124:10 0.4527
15 net_124:11 0.1465
16 inst_149:A2 0.1463
*RES
2 TAUGATE_225:Z net_124:1 0.0174
3 net_124:1 inst_167:A2 0.1906
4 net_124:1 net_124:2 0.4629
5 net_124:2 net_124:3 0.1157
6 net_124:3 net_124:4 0.1901
7 net_124:4 net_124:5 0.2138
8 net_124:5 inst_157:A2 0.5008
9 net_124:3 net_124:6 0.3277
10 net_124:6 net_124:7 0.3144
11 net_124:7 net_124:8 0.4503
12 net_124:8 net_124:9 0.3676
13 net_124:9 inst_144:A2 0.1603
14 net_124:9 net_124:10 0.4621
15 net_124:10 net_124:11 0.4065
16 net_124:11 inst_149:A2 0.0227
*END

*D_NET nid25 4.4363
*CONN
*I TAUGATE_320:Z O
*I inst_12:B I
*I inst_18:A I
*I inst_87:A I
*CAP
1 TAUGATE_320:Z 0.4114
2 nid25:1 0.1546
3 inst_18:A 0.1861
4 nid25:2 0.4978
5 nid25:3 0.2563
6 nid25:4 0.2595
7 nid25:5 0.2603
8 nid25:6 0.2874
9 inst_12:B 0.3072
10 nid25:7 0.4796
11 nid25:8 0.3806
12 nid25:9 0.4946
13 inst_87:A 0.4608
*RES
2 TAUGATE_320:Z nid25:1 0.4367
3 nid25:1 inst_18:A 0.3452
4 nid25:1 nid25:2 0.2768
5 nid25:2 nid25:3 0.1679
6 nid25:3 nid25:4 0.2053
7 nid25:4 nid25:5 0.2140
8 nid25:5 nid25:6 0.3306
9 nid25:6 inst_12:B 0.1569
10 nid25:3 nid25:7 0.4692
11 nid25:7 nid25:8 0.4766
12 nid25:8 nid25:9 0.0589
13 nid25:9 inst_87:A 0.0962
*END

*D_NET TAUNET_201 1.3235
*CONN
*I inst_110:ZN O
*I TAUGATE_201:A I
*CAP
1 inst_110:ZN 0.1750
2 TAUNET_201:1 0.0845
3 TAUNET_201:2 0.1888
4 TAUNET_201:3 0.1436
5 TAUNET_201:4 0.1762
6 TAUNET_201:5 0.4748
7 TAUGATE_201:A 0.0806
*RES
2 inst_110:ZN TAUNET_201:1 0.0407
3 TAUNET_201:1 TAUNET_201:2 0.2069
4 TAUNET_201:2 TAUNET_201:3 0.0491
5 TAUNET_201:3 TAUNET_201:4 0.4137
6 TAUNET_201:4 TAUNET_201:5 0.3046
7 TAUNET_201:5 TAUGATE_201:A 0.2987
*END

*D_NET TAUNET_87 1.6284
*CONN
*I inst_33:ZN O
*I TAUGATE_87:A I
*CAP
1 inst_33:ZN 0.1831
2 TAUNET_87:1 0.0191
3 TAUNET_87:2 0.3538
4 TAUNET_87:3 0.4300
5 TAUNET_87:4 0.3629
6 TAUNET_87:5 0.0787
7 TAUGATE_87:A 0.2007
*RES
2 inst_33:ZN TAUNET_87:1 0.2971
3 TAUNET_87:1 TAUNET_87:2 0.4025
4 TAUNET_87:2 TAUNET_87:3 0.5010
5 TAUNET_87:3 TAUNET_87:4 0.3538
6 TAUNET_87:4 TAUNET_87:5 0.4649
7 TAUNET_87:5 TAUGATE_87:A 0.0482
*END

*D_NET TAUNET_72 1.9070
*CONN
*I inst_168:ZN O
*I TAUGATE_72:A I
*CAP
1 inst_168:ZN 0.2963
2 TAUNET_72:1 0.2002
3 TAUNET_72:2 0.2573
4 TAUNET_72:3 0.3761
5 TAUNET_72:4 0.0616
6 TAUNET_72:5 0.4298
7 TAUGATE_72:A 0.2857
*RES
2 inst_168:ZN TAUNET_72:1 0.2634
3 TAUNET_72:1 TAUNET_72:2 0.0470
4 TAUNET_72:2 TAUNET_72:3 0.0745
5 TAUNET_72:3 TAUNET_72:4 0.1738
6 TAUNET_72:4 TAUNET_72:5 0.4336
7 TAUNET_72:5 TAUGATE_72:A 0.4556
*END

*D_NET net_4 1.0764
*CONN
*I TAUGATE_246:Z O
*I inst_57:B I
*CAP
1 TAUGATE_246:Z 0.0036
2 net_4:1 0.2737
3 net_4:2 0.3095
4 inst_57:B 0.4895
*RES
2 TAUGATE_246:Z net_4:1 0.4033
3 net_4:1 net_4:2 0.2734
4 net_4:2 inst_57:B 0.3461
*END

*D_NET TAUNET_134 1.3424
*CONN
*P nid0 I
*I TAUGATE_134:A I
*CAP
1 nid0 0.0418
2 TAUNET_134:1 0.3815
3 TAUNET_134:2 0.1458
4 TAUNET_134:3 0.4915
5 TAUNET_134:4 0.0683
6 TAUGATE_134:A 0.2135
*RES
2 nid0 TAUNET_134:1 0.4484
3 TAUNET_134:1 TAUNET_134:2 0.1379
4 TAUNET_134:2 TAUNET_134:3 0.1139
5 TAUNET_134:3 TAUNET_134:4 0.0489
6 TAUNET_134:4 TAUGATE_134:A 0.0861
*END

*D_NET TAUNET_284 1.2401
*CONN
*I inst_114:ZN O
*I TAUGATE_284:A I
*CAP
1 inst_114:ZN 0.4806
2 TAUNET_284:1 0.1114
3 TAUNET_284:2 0.0198
4 TAUNET_284:3 0.2366
5 TAUNET_284:4 0.1100
6 TAUGATE_284:A 0.2818
*RES
2 inst_114:ZN TAUNET_284:1 0.3290
3 TAUNET_284:1 TAUNET_284:2 0.1592
4 TAUNET_284:2 TAUNET_284:3 0.4236
5 TAUNET_284:3 TAUNET_284:4 0.3328
6 TAUNET_284:4 TAUGATE_284:A 0.1906
*END

*D_NET TAUNET_267 1.5747
*CONN
*I TAUGATE_31:Z O
*I TAUGATE_267:A I
*CAP
1 TAUGATE_31:Z 0.4347
2 TAUNET_267:1 0.1394
3 TAUNET_267:2 0.0096
4 TAUNET_267:3 0.4963
5 TAUNET_267:4 0.2377
6 TAUGATE_267:A 0.2571
*RES
2 TAUGATE_31:Z TAUNET_267:1 0.3610
3 TAUNET_267:1 TAUNET_267:2 0.0042
4 TAUNET_267:2 TAUNET_267:3 0.2690
5 TAUNET_267:3 TAUNET_267:4 0.3841
6 TAUNET_267:4 TAUGATE_267:A 0.3400
*END

*D_NET TAUNET_44 1.2277
*CONN
*I TAUGATE_184:Z O
*I TAUGATE_44:A I
*CAP
1 TAUGATE_184:Z 0.3112
2 TAUNET_44:1 0.4134
3 TAUNET_44:2 0.0741
4 TAUGATE_44:A 0.4290
*RES
2 TAUGATE_184:Z TAUNET_44:1 0.4891
3 TAUNET_44:1 TAUNET_44:2 0.0621
4 TAUNET_44:2 TAUGATE_44:A 0.2122
*END

*D_NET TAUNET_207 0.7629
*CONN
*I TAUGATE_44:Z O
*I TAUGATE_207:A I
*CAP
1 TAUGATE_44:Z 0.1253
2 TAUNET_207:1 0.2343
3 TAUNET_207:2 0.1106
4 TAUNET_207:3 0.0283
5 TAUGATE_207:A 0.2644
*RES
2 TAUGATE_44:Z TAUNET_207:1 0.3395
3 TAUNET_207:1 TAUNET_207:2 0.4160
4 TAUNET_207:2 TAUNET_207:3 0.1311
5 TAUNET_207:3 TAUGATE_207:A 0.1702
*END

*D_NET net_35 0.8144
*CONN
*I TAUGATE_202:Z O
*I inst_42:A I
*CAP
1 TAUGATE_202:Z 0.0383
2 net_35:1 0.2177
3 net_35:2 0.0520
4 net_35:3 0.1787
5 inst_42:A 0.3277
*RES
2 TAUGATE_202:Z net_35:1 0.2308
3 net_35:1 net_35:2 0.1825
4 net_35:2 net_35:3 0.4154
5 net_35:3 inst_42:A 0.4205
*END

*D_NET net_16 0.9305
*CONN
*I TAUGATE_63:Z O
*I inst_43:B I
*CAP
1 TAUGATE_63:Z 0.3303
2 net_16:1 0.3450
3 inst_43:B 0.2552
*RES
2 TAUGATE_63:Z net_16:1 0.2397
3 net_16:1 inst_43:B 0.3943
*END

*D_NET TAUNET_56 1.1705
*CONN
*I TAUGATE_239:Z O
*I TAUGATE_56:A I
*CAP
1 TAUGATE_239:Z 0.3586
2 TAUNET_56:1 0.2132
3 TAUNET_56:2 0.3448
4 TAUGATE_56:A 0.2539
*RES
2 TAUGATE_239:Z TAUNET_56:1 0.0169
3 TAUNET_56:1 TAUNET_56:2 0.2910
4 TAUNET_56:2 TAUGATE_56:A 0.3418
*END

*D_NET nod17 1.0972
*CONN
*I TAUGATE_176:Z O
*P nod17 O
*CAP
1 TAUGATE_176:Z 0.2232
2 nod17:1 0.3825
3 nod17 0.4916
*RES
2 TAUGATE_176:Z nod17:1 0.0258
3 nod17:1 nod17 0.0722
*END

*D_NET nic0 0.1761
*CONN
*I TAUGATE_103:Z O
*I inst_123:A1 I
*CAP
1 TAUGATE_103:Z 0.0274
2 nic0:1 0.0758
3 inst_123:A1 0.0730
*RES
2 TAUGATE_103:Z nic0:1 0.2996
3 nic0:1 inst_123:A1 0.1500
*END

*D_NET net_120 7.1944
*CONN
*I TAUGATE_211:Z O
*I inst_138:A1 I
*I inst_121:A2 I
*I inst_72:A I
*I inst_155:A1 I
*I inst_173:A I
*I inst_144:A1 I
*I inst_168:A1 I
*CAP
1 TAUGATE_211:Z 0.0605
2 net_120:1 0.4347
3 net_120:2 0.2976
4 inst_155:A1 0.3531
5 net_120:3 0.2983
6 net_120:4 0.4269
7 net_120:5 0.0493
8 net_120:6 0.0341
9 inst_121:A2 0.3020
10 net_120:7 0.3051
11 inst_72:A 0.1197
12 net_120:8 0.3150
13 net_120:9 0.0137
14 net_120:10 0.2108
15 inst_138:A1 0.3101
16 net_120:11 0.3768
17 net_120:12 0.3083
18 net_120:13 0.1250
19 inst_173:A 0.3526
20 net_120:14 0.2418
21 net_120:15 0.4080
22 net_120:16 0.3118
23 net_120:17 0.4981
24 net_120:18 0.3134
25 inst_144:A1 0.4059
26 net_120:19 0.0712
27 net_120:20 0.0044
28 net_120:21 0.1986
29 inst_168:A1 0.0476
*RES
2 TAUGATE_211:Z net_120:1 0.0316
3 net_120:1 net_120:2 0.1823
4 net_120:2 inst_155:A1 0.0755
5 net_120:2 net_120:3 0.3389
6 net_120:3 net_120:4 0.4000
7 net_120:4 net_120:5 0.0188
8 net_120:5 net_120:6 0.4709
9 net_120:6 inst_121:A2 0.4204
10 net_120:3 net_120:7 0.2956
11 net_120:7 inst_72:A 0.2210
12 net_120:2 net_120:8 0.0161
13 net_120:8 net_120:9 0.2047
14 net_120:9 net_120:10 0.3729
15 net_120:10 inst_138:A1 0.0610
16 net_120:8 net_120:11 0.3715
17 net_120:11 net_120:12 0.3144
18 net_120:12 net_120:13 0.3618
19 net_120:13 inst_173:A 0.0820
20 net_120:10 net_120:14 0.1396
21 net_120:14 net_120:15 0.0910
22 net_120:15 net_120:16 0.1278
23 net_120:16 net_120:17 0.3093
24 net_120:17 net_120:18 0.3342
25 net_120:18 inst_144:A1 0.2150
26 net_120:7 net_120:19 0.0521
27 net_120:19 net_120:20 0.0546
28 net_120:20 net_120:21 0.0043
29 net_120:21 inst_168:A1 0.2737
*END

*D_NET TAUNET_142 1.2711
*CONN
*I inst_148:ZN O
*I TAUGATE_142:A I
*CAP
1 inst_148:ZN 0.2677
2 TAUNET_142:1 0.1466
3 TAUNET_142:2 0.2784
4 TAUNET_142:3 0.2008
5 TAUGATE_142:A 0.3776
*RES
2 inst_148:ZN TAUNET_142:1 0.2937
3 TAUNET_142:1 TAUNET_142:2 0.0093
4 TAUNET_142:2 TAUNET_142:3 0.2822
5 TAUNET_142:3 TAUGATE_142:A 0.4311
*END

*D_NET TAUNET_211 1.6512
*CONN
*I inst_68:ZN O
*I TAUGATE_211:A I
*CAP
1 inst_68:ZN 0.1138
2 TAUNET_211:1 0.3567
3 TAUNET_211:2 0.3242
4 TAUNET_211:3 0.2336
5 TAUNET_211:4 0.3863
6 TAUGATE_211:A 0.2365
*RES
2 inst_68:ZN TAUNET_211:1 0.1037
3 TAUNET_211:1 TAUNET_211:2 0.3572
4 TAUNET_211:2 TAUNET_211:3 0.2211
5 TAUNET_211:3 TAUNET_211:4 0.2185
6 TAUNET_211:4 TAUGATE_211:A 0.2266
*END

*D_NET TAUNET_221 1.9002
*CONN
*I inst_49:ZN O
*I TAUGATE_221:A I
*CAP
1 inst_49:ZN 0.1297
2 TAUNET_221:1 0.2417
3 TAUNET_221:2 0.2444
4 TAUNET_221:3 0.4262
5 TAUNET_221:4 0.3737
6 TAUNET_221:5 0.3015
7 TAUGATE_221:A 0.1830
*RES
2 inst_49:ZN TAUNET_221:1 0.3035
3 TAUNET_221:1 TAUNET_221:2 0.4053
4 TAUNET_221:2 TAUNET_221:3 0.0863
5 TAUNET_221:3 TAUNET_221:4 0.2362
6 TAUNET_221:4 TAUNET_221:5 0.1365
7 TAUNET_221:5 TAUGATE_221:A 0.0277
*END

*D_NET net_109 0.8486
*CONN
*I TAUGATE_83:Z O
*I inst_100:B I
*CAP
1 TAUGATE_83:Z 0.2912
2 net_109:1 0.3711
3 net_109:2 0.0512
4 inst_100:B 0.1351
*RES
2 TAUGATE_83:Z net_109:1 0.0984
3 net_109:1 net_109:2 0.0368
4 net_109:2 inst_100:B 0.4376
*END

*D_NET net_80 3.4210
*CONN
*I TAUGATE_313:Z O
*I inst_118:A2 I
*I inst_170:A I
*I inst_137:A1 I
*CAP
1 TAUGATE_313:Z 0.1283
2 net_80:1 0.3234
3 net_80:2 0.4610
4 inst_118:A2 0.4832
5 net_80:3 0.4556
6 net_80:4 0.1835
7 net_80:5 0.0020
8 net_80:6 0.2614
9 inst_170:A 0.3010
10 net_80:7 0.3178
11 net_80:8 0.2541
12 inst_137:A1 0.2497
*RES
2 TAUGATE_313:Z net_80:1 0.2776
3 net_80:1 net_80:2 0.3781
4 net_80:2 inst_118:A2 0.3766
5 net_80:1 net_80:3 0.2164
6 net_80:3 net_80:4 0.4372
7 net_80:4 net_80:5 0.1158
8 net_80:5 net_80:6 0.1153
9 net_80:6 inst_170:A 0.3810
10 net_80:1 net_80:7 0.4625
11 net_80:7 net_80:8 0.2343
12 net_80:8 inst_137:A1 0.0981
*END

*D_NET net_65 1.0934
*CONN
*I TAUGATE_260:Z O
*I inst_67:B I
*CAP
1 TAUGATE_260:Z 0.2382
2 net_65:1 0.0945
3 net_65:2 0.2326
4 net_65:3 0.0121
5 net_65:4 0.2674
6 net_65:5 0.2072
7 inst_67:B 0.0414
*RES
2 TAUGATE_260:Z net_65:1 0.2455
3 net_65:1 net_65:2 0.1970
4 net_65:2 net_65:3 0.0138
5 net_65:3 net_65:4 0.4527
6 net_65:4 net_65:5 0.3131
7 net_65:5 inst_67:B 0.4392
*END

*D_NET nod25 1.6917
*CONN
*I TAUGATE_197:Z O
*P nod25 O
*CAP
1 TAUGATE_197:Z 0.0368
2 nod25:1 0.2266
3 nod25:2 0.4199
4 nod25:3 0.3736
5 nod25:4 0.3306
6 nod25 0.3042
*RES
2 TAUGATE_197:Z nod25:1 0.1317
3 nod25:1 nod25:2 0.1481
4 nod25:2 nod25:3 0.2485
5 nod25:3 nod25:4 0.2201
6 nod25:4 nod25 0.2966
*END

*D_NET TAUNET_81 0.5227
*CONN
*I inst_166:ZN O
*I TAUGATE_81:A I
*CAP
1 inst_166:ZN 0.0758
2 TAUNET_81:1 0.3812
3 TAUGATE_81:A 0.0656
*RES
2 inst_166:ZN TAUNET_81:1 0.1550
3 TAUNET_81:1 TAUGATE_81:A 0.0047
*END

*D_NET TAUNET_189 1.6139
*CONN
*P nid2 I
*I TAUGATE_189:A I
*CAP
1 nid2 0.2138
2 TAUNET_189:1 0.2523
3 TAUNET_189:2 0.0497
4 TAUNET_189:3 0.4938
5 TAUNET_189:4 0.3913
6 TAUGATE_189:A 0.2131
*RES
2 nid2 TAUNET_189:1 0.3201
3 TAUNET_189:1 TAUNET_189:2 0.0320
4 TAUNET_189:2 TAUNET_189:3 0.2786
5 TAUNET_189:3 TAUNET_189:4 0.3378
6 TAUNET_189:4 TAUGATE_189:A 0.4364
*END

*D_NET TAUNET_154 1.5961
*CONN
*I inst_23:Z O
*I TAUGATE_154:A I
*CAP
1 inst_23:Z 0.4527
2 TAUNET_154:1 0.3641
3 TAUNET_154:2 0.1740
4 TAUNET_154:3 0.2701
5 TAUGATE_154:A 0.3351
*RES
2 inst_23:Z TAUNET_154:1 0.4105
3 TAUNET_154:1 TAUNET_154:2 0.3004
4 TAUNET_154:2 TAUNET_154:3 0.3665
5 TAUNET_154:3 TAUGATE_154:A 0.1341
*END

*D_NET net_96 0.7589
*CONN
*I TAUGATE_200:Z O
*I inst_77:B I
*CAP
1 TAUGATE_200:Z 0.1706
2 net_96:1 0.0751
3 net_96:2 0.1227
4 net_96:3 0.0294
5 net_96:4 0.0059
6 inst_77:B 0.3552
*RES
2 TAUGATE_200:Z net_96:1 0.3839
3 net_96:1 net_96:2 0.1840
4 net_96:2 net_96:3 0.4010
5 net_96:3 net_96:4 0.3573
6 net_96:4 inst_77:B 0.4559
*END

*D_NET net_136 1.8802
*CONN
*I TAUGATE_294:Z O
*I inst_104:B I
*CAP
1 TAUGATE_294:Z 0.1715
2 net_136:1 0.3594
3 net_136:2 0.4902
4 net_136:3 0.4716
5 net_136:4 0.2112
6 inst_104:B 0.1762
*RES
2 TAUGATE_294:Z net_136:1 0.1166
3 net_136:1 net_136:2 0.1660
4 net_136:2 net_136:3 0.2177
5 net_136:3 net_136:4 0.2908
6 net_136:4 inst_104:B 0.3318
*END

*D_NET nod13 1.3234
*CONN
*I TAUGATE_67:Z O
*P nod13 O
*CAP
1 TAUGATE_67:Z 0.4080
2 nod13:1 0.1932
3 nod13:2 0.0675
4 nod13:3 0.0053
5 nod13:4 0.1459
6 nod13:5 0.0437
7 nod13 0.4598
*RES
2 TAUGATE_67:Z nod13:1 0.3838
3 nod13:1 nod13:2 0.2033
4 nod13:2 nod13:3 0.3263
5 nod13:3 nod13:4 0.4574
6 nod13:4 nod13:5 0.4683
7 nod13:5 nod13 0.1543
*END

*D_NET TAUNET_15 1.8258
*CONN
*I TAUGATE_156:Z O
*I TAUGATE_15:A I
*CAP
1 TAUGATE_156:Z 0.1669
2 TAUNET_15:1 0.4518
3 TAUNET_15:2 0.0570
4 TAUNET_15:3 0.4909
5 TAUNET_15:4 0.0572
6 TAUNET_15:5 0.5008
7 TAUGATE_15:A 0.1013
*RES
2 TAUGATE_156:Z TAUNET_15:1 0.2457
3 TAUNET_15:1 TAUNET_15:2 0.4210
4 TAUNET_15:2 TAUNET_15:3 0.2594
5 TAUNET_15:3 TAUNET_15:4 0.3565
6 TAUNET_15:4 TAUNET_15:5 0.4074
7 TAUNET_15:5 TAUGATE_15:A 0.4309
*END

*D_NET TAUNET_182 1.6029
*CONN
*I inst_80:ZN O
*I TAUGATE_182:A I
*CAP
1 inst_80:ZN 0.2931
2 TAUNET_182:1 0.2246
3 TAUNET_182:2 0.3320
4 TAUNET_182:3 0.3870
5 TAUGATE_182:A 0.3663
*RES
2 inst_80:ZN TAUNET_182:1 0.1512
3 TAUNET_182:1 TAUNET_182:2 0.1368
4 TAUNET_182:2 TAUNET_182:3 0.4493
5 TAUNET_182:3 TAUGATE_182:A 0.4663
*END

*D_NET net_126 1.5003
*CONN
*I TAUGATE_73:Z O
*I inst_76:B I
*CAP
1 TAUGATE_73:Z 0.1873
2 net_126:1 0.3589
3 net_126:2 0.4697
4 inst_76:B 0.4844
*RES
2 TAUGATE_73:Z net_126:1 0.0401
3 net_126:1 net_126:2 0.2861
4 net_126:2 inst_76:B 0.1883
*END

*D_NET TAUNET_303 1.2973
*CONN
*P nic5 I
*I TAUGATE_303:A I
*CAP
1 nic5 0.0604
2 TAUNET_303:1 0.2921
3 TAUNET_303:2 0.4162
4 TAUNET_303:3 0.1285
5 TAUNET_303:4 0.0491
6 TAUGATE_303:A 0.3511
*RES
2 nic5 TAUNET_303:1 0.2111
3 TAUNET_303:1 TAUNET_303:2 0.3010
4 TAUNET_303:2 TAUNET_303:3 0.1515
5 TAUNET_303:3 TAUNET_303:4 0.0492
6 TAUNET_303:4 TAUGATE_303:A 0.2707
*END

*D_NET net_34 0.7974
*CONN
*I TAUGATE_193:Z O
*I inst_40:A I
*CAP
1 TAUGATE_193:Z 0.2365
2 net_34:1 0.2080
3 inst_40:A 0.3529
*RES
2 TAUGATE_193:Z net_34:1 0.4886
3 net_34:1 inst_40:A 0.3648
*END

*D_NET net_108 1.5829
*CONN
*I TAUGATE_142:Z O
*I inst_84:B I
*CAP
1 TAUGATE_142:Z 0.3187
2 net_108:1 0.0224
3 net_108:2 0.4026
4 net_108:3 0.2784
5 net_108:4 0.1803
6 net_108:5 0.0882
7 inst_84:B 0.2924
*RES
2 TAUGATE_142:Z net_108:1 0.4780
3 net_108:1 net_108:2 0.3510
4 net_108:2 net_108:3 0.1182
5 net_108:3 net_108:4 0.2614
6 net_108:4 net_108:5 0.1530
7 net_108:5 inst_84:B 0.2582
*END

*D_NET TAUNET_53 1.1301
*CONN
*I TAUGATE_308:Z O
*I TAUGATE_53:A I
*CAP
1 TAUGATE_308:Z 0.0762
2 TAUNET_53:1 0.3922
3 TAUNET_53:2 0.3950
4 TAUGATE_53:A 0.2666
*RES
2 TAUGATE_308:Z TAUNET_53:1 0.4255
3 TAUNET_53:1 TAUNET_53:2 0.4671
4 TAUNET_53:2 TAUGATE_53:A 0.2972
*END

*D_NET TAUNET_2 2.1171
*CONN
*I TAUGATE_95:Z O
*I TAUGATE_2:A I
*CAP
1 TAUGATE_95:Z 0.4880
2 TAUNET_2:1 0.3167
3 TAUNET_2:2 0.3376
4 TAUNET_2:3 0.1073
5 TAUNET_2:4 0.3579
6 TAUNET_2:5 0.1300
7 TAUGATE_2:A 0.3795
*RES
2 TAUGATE_95:Z TAUNET_2:1 0.2362
3 TAUNET_2:1 TAUNET_2:2 0.1908
4 TAUNET_2:2 TAUNET_2:3 0.1996
5 TAUNET_2:3 TAUNET_2:4 0.3123
6 TAUNET_2:4 TAUNET_2:5 0.1251
7 TAUNET_2:5 TAUGATE_2:A 0.0048
*END

*D_NET TAUNET_194 0.7154
*CONN
*I inst_175:ZN O
*I TAUGATE_194:A I
*CAP
1 inst_175:ZN 0.0195
2 TAUNET_194:1 0.3700
3 TAUGATE_194:A 0.3260
*RES
2 inst_175:ZN TAUNET_194:1 0.3466
3 TAUNET_194:1 TAUGATE_194:A 0.4948
*END

*D_NET net_63 0.7773
*CONN
*I TAUGATE_238:Z O
*I inst_62:A I
*CAP
1 TAUGATE_238:Z 0.1954
2 net_63:1 0.4904
3 inst_62:A 0.0915
*RES
2 TAUGATE_238:Z net_63:1 0.4619
3 net_63:1 inst_62:A 0.1065
*END

*D_NET TAUNET_233 0.7741
*CONN
*I inst_26:ZN O
*I TAUGATE_233:A I
*CAP
1 inst_26:ZN 0.2576
2 TAUNET_233:1 0.2231
3 TAUGATE_233:A 0.2934
*RES
2 inst_26:ZN TAUNET_233:1 0.0661
3 TAUNET_233:1 TAUGATE_233:A 0.0281
*END

*D_NET TAUNET_4 0.7745
*CONN
*I TAUGATE_186:Z O
*I TAUGATE_4:A I
*CAP
1 TAUGATE_186:Z 0.2539
2 TAUNET_4:1 0.1980
3 TAUGATE_4:A 0.3226
*RES
2 TAUGATE_186:Z TAUNET_4:1 0.1282
3 TAUNET_4:1 TAUGATE_4:A 0.2766
*END

*D_NET TAUNET_283 2.4916
*CONN
*I inst_0:Z O
*I TAUGATE_283:A I
*CAP
1 inst_0:Z 0.4267
2 TAUNET_283:1 0.3295
3 TAUNET_283:2 0.4724
4 TAUNET_283:3 0.4631
5 TAUNET_283:4 0.0407
6 TAUNET_283:5 0.4130
7 TAUGATE_283:A 0.3462
*RES
2 inst_0:Z TAUNET_283:1 0.0714
3 TAUNET_283:1 TAUNET_283:2 0.2110
4 TAUNET_283:2 TAUNET_283:3 0.2588
5 TAUNET_283:3 TAUNET_283:4 0.0339
6 TAUNET_283:4 TAUNET_283:5 0.0519
7 TAUNET_283:5 TAUGATE_283:A 0.4874
*END

*D_NET TAUNET_155 1.1229
*CONN
*I TAUGATE_48:Z O
*I TAUGATE_155:A I
*CAP
1 TAUGATE_48:Z 0.2489
2 TAUNET_155:1 0.0346
3 TAUNET_155:2 0.4333
4 TAUNET_155:3 0.0645
5 TAUGATE_155:A 0.3416
*RES
2 TAUGATE_48:Z TAUNET_155:1 0.4099
3 TAUNET_155:1 TAUNET_155:2 0.1540
4 TAUNET_155:2 TAUNET_155:3 0.0325
5 TAUNET_155:3 TAUGATE_155:A 0.0924
*END

*D_NET TAUNET_234 1.2932
*CONN
*I inst_144:ZN O
*I TAUGATE_234:A I
*CAP
1 inst_144:ZN 0.1516
2 TAUNET_234:1 0.4228
3 TAUNET_234:2 0.1417
4 TAUNET_234:3 0.3754
5 TAUGATE_234:A 0.2016
*RES
2 inst_144:ZN TAUNET_234:1 0.0068
3 TAUNET_234:1 TAUNET_234:2 0.2001
4 TAUNET_234:2 TAUNET_234:3 0.4220
5 TAUNET_234:3 TAUGATE_234:A 0.4926
*END

*D_NET TAUNET_209 1.4952
*CONN
*I inst_6:Z O
*I TAUGATE_209:A I
*CAP
1 inst_6:Z 0.3810
2 TAUNET_209:1 0.2042
3 TAUNET_209:2 0.2030
4 TAUNET_209:3 0.2656
5 TAUGATE_209:A 0.4413
*RES
2 inst_6:Z TAUNET_209:1 0.1336
3 TAUNET_209:1 TAUNET_209:2 0.4042
4 TAUNET_209:2 TAUNET_209:3 0.0451
5 TAUNET_209:3 TAUGATE_209:A 0.2391
*END

*D_NET net_99 0.9045
*CONN
*I TAUGATE_119:Z O
*I inst_80:B I
*CAP
1 TAUGATE_119:Z 0.4146
2 net_99:1 0.2654
3 inst_80:B 0.2245
*RES
2 TAUGATE_119:Z net_99:1 0.4797
3 net_99:1 inst_80:B 0.0551
*END

*D_NET net_46 1.5272
*CONN
*I TAUGATE_298:Z O
*I inst_71:A I
*CAP
1 TAUGATE_298:Z 0.0973
2 net_46:1 0.1903
3 net_46:2 0.2143
4 net_46:3 0.0701
5 net_46:4 0.2421
6 net_46:5 0.4634
7 inst_71:A 0.2497
*RES
2 TAUGATE_298:Z net_46:1 0.2766
3 net_46:1 net_46:2 0.3086
4 net_46:2 net_46:3 0.2353
5 net_46:3 net_46:4 0.4838
6 net_46:4 net_46:5 0.0722
7 net_46:5 inst_71:A 0.3539
*END

*D_NET TAUNET_130 1.2346
*CONN
*I inst_139:ZN O
*I TAUGATE_130:A I
*CAP
1 inst_139:ZN 0.0192
2 TAUNET_130:1 0.4054
3 TAUNET_130:2 0.3681
4 TAUGATE_130:A 0.4419
*RES
2 inst_139:ZN TAUNET_130:1 0.1561
3 TAUNET_130:1 TAUNET_130:2 0.1347
4 TAUNET_130:2 TAUGATE_130:A 0.0224
*END

*D_NET TAUNET_276 1.9103
*CONN
*I inst_117:ZN O
*I TAUGATE_276:A I
*CAP
1 inst_117:ZN 0.2244
2 TAUNET_276:1 0.1374
3 TAUNET_276:2 0.1713
4 TAUNET_276:3 0.2153
5 TAUNET_276:4 0.3119
6 TAUNET_276:5 0.4918
7 TAUGATE_276:A 0.3583
*RES
2 inst_117:ZN TAUNET_276:1 0.0251
3 TAUNET_276:1 TAUNET_276:2 0.0071
4 TAUNET_276:2 TAUNET_276:3 0.2242
5 TAUNET_276:3 TAUNET_276:4 0.4834
6 TAUNET_276:4 TAUNET_276:5 0.4589
7 TAUNET_276:5 TAUGATE_276:A 0.0098
*END

*D_NET TAUNET_248 2.1429
*CONN
*I inst_64:ZN O
*I TAUGATE_248:A I
*CAP
1 inst_64:ZN 0.2846
2 TAUNET_248:1 0.1185
3 TAUNET_248:2 0.4585
4 TAUNET_248:3 0.3703
5 TAUNET_248:4 0.0365
6 TAUNET_248:5 0.4409
7 TAUGATE_248:A 0.4335
*RES
2 inst_64:ZN TAUNET_248:1 0.3158
3 TAUNET_248:1 TAUNET_248:2 0.2513
4 TAUNET_248:2 TAUNET_248:3 0.4798
5 TAUNET_248:3 TAUNET_248:4 0.1640