*SPEF "IEEE 1481-1998"
*DESIGN "changes"
*DATE "Tue Dec 02 19:00:31 2014"
*VENDOR "TAU 2015 Contest"
*PROGRAM "Benchmark Parasitic Generator"
*VERSION "0.0"
*DESIGN_FLOW "NETLIST_TYPE_VERILOG"
*DIVIDER /
*DELIMITER :
*BUS_DELIMITER [ ]
*T_UNIT 1 PS
*C_UNIT 1 FF
*R_UNIT 1 KOHM
*L_UNIT 1 UH

*D_NET net_107 1.7439
*CONN
*I inst_147:ZN O
*I inst_95:B I
*CAP
1 inst_147:ZN 0.2611
2 net_107:1 0.4098
3 net_107:2 0.5009
4 net_107:3 0.2843
5 inst_95:B 0.2878
*RES
2 inst_147:ZN net_107:1 0.1659
3 net_107:1 net_107:2 0.2742
4 net_107:2 net_107:3 0.3494
5 net_107:3 inst_95:B 0.1485
*END

*D_NET net_47 1.3760
*CONN
*I inst_47:ZN O
*I inst_66:A I
*CAP
1 inst_47:ZN 0.2110
2 net_47:1 0.3070
3 net_47:2 0.3583
4 net_47:3 0.1395
5 net_47:4 0.0646
6 net_47:5 0.0794
7 inst_66:A 0.2161
*RES
2 inst_47:ZN net_47:1 0.1614
3 net_47:1 net_47:2 0.3312
4 net_47:2 net_47:3 0.3755
5 net_47:3 net_47:4 0.4644
6 net_47:4 net_47:5 0.4559
7 net_47:5 inst_66:A 0.4050
*END

*D_NET nod23 0.4849
*CONN
*I inst_89:ZN O
*P nod23 O
*CAP
1 inst_89:ZN 0.1670
2 nod23:1 0.2440
3 nod23:2 0.0332
4 nod23 0.0406
*RES
2 inst_89:ZN nod23:1 0.2732
3 nod23:1 nod23:2 0.0073
4 nod23:2 nod23 0.1308
*END

*D_NET net_61 1.8161
*CONN
*I inst_53:ZN O
*I inst_60:A I
*CAP
1 inst_53:ZN 0.2909
2 net_61:1 0.0740
3 net_61:2 0.4871
4 net_61:3 0.4951
5 net_61:4 0.4125
6 inst_60:A 0.0565
*RES
2 inst_53:ZN net_61:1 0.1285
3 net_61:1 net_61:2 0.0292
4 net_61:2 net_61:3 0.2926
5 net_61:3 net_61:4 0.4507
6 net_61:4 inst_60:A 0.3356
*END

*D_NET net_137 1.9602
*CONN
*I inst_165:ZN O
*I inst_92:B I
*CAP
1 inst_165:ZN 0.3845
2 net_137:1 0.3056
3 net_137:2 0.3464
4 net_137:3 0.0305
5 net_137:4 0.2383
6 net_137:5 0.4020
7 inst_92:B 0.2529
*RES
2 inst_165:ZN net_137:1 0.2665
3 net_137:1 net_137:2 0.4354
4 net_137:2 net_137:3 0.1977
5 net_137:3 net_137:4 0.0788
6 net_137:4 net_137:5 0.3276
7 net_137:5 inst_92:B 0.3833
*END

*D_NET nid21 2.8321
*CONN
*P nid21 I
*I inst_20:A I
*I inst_91:A I
*I inst_4:A I
*CAP
1 nid21 0.0716
2 nid21:1 0.1922
3 nid21:2 0.2805
4 nid21:3 0.1322
5 inst_91:A 0.1905
6 nid21:4 0.2211
7 nid21:5 0.1955
8 nid21:6 0.1868
9 nid21:7 0.4889
10 inst_20:A 0.0703
11 nid21:8 0.3990
12 inst_4:A 0.4035
*RES
2 nid21 nid21:1 0.4017
3 nid21:1 nid21:2 0.4680
4 nid21:2 nid21:3 0.2976
5 nid21:3 inst_91:A 0.2331
6 nid21:2 nid21:4 0.3298
7 nid21:4 nid21:5 0.4131
8 nid21:5 nid21:6 0.3310
9 nid21:6 nid21:7 0.2621
10 nid21:7 inst_20:A 0.4792
11 nid21:3 nid21:8 0.0219
12 nid21:8 inst_4:A 0.0830
*END

*D_NET net_132 1.6212
*CONN
*I inst_162:ZN O
*I inst_74:B I
*CAP
1 inst_162:ZN 0.1250
2 net_132:1 0.4976
3 net_132:2 0.3591
4 net_132:3 0.2780
5 net_132:4 0.2022
6 inst_74:B 0.1593
*RES
2 inst_162:ZN net_132:1 0.4382
3 net_132:1 net_132:2 0.3498
4 net_132:2 net_132:3 0.4055
5 net_132:3 net_132:4 0.4519
6 net_132:4 inst_74:B 0.4658
*END

*D_NET net_54 2.2534
*CONN
*I inst_37:ZN O
*I inst_55:B I
*I inst_50:B I
*CAP
1 inst_37:ZN 0.4019
2 net_54:1 0.2503
3 inst_50:B 0.4700
4 net_54:2 0.0376
5 net_54:3 0.0972
6 net_54:4 0.3594
7 net_54:5 0.0525
8 net_54:6 0.3248
9 inst_55:B 0.2597
*RES
2 inst_37:ZN net_54:1 0.3789
3 net_54:1 inst_50:B 0.3545
4 net_54:1 net_54:2 0.1267
5 net_54:2 net_54:3 0.3840
6 net_54:3 net_54:4 0.2434
7 net_54:4 net_54:5 0.3726
8 net_54:5 net_54:6 0.2980
9 net_54:6 inst_55:B 0.2454
*END

*D_NET net_105 3.7296
*CONN
*I inst_113:ZN O
*I inst_148:A2 I
*I inst_146:A2 I
*I inst_141:A2 I
*I inst_143:A2 I
*CAP
1 inst_113:ZN 0.1921
2 net_105:1 0.4443
3 net_105:2 0.1288
4 inst_143:A2 0.3022
5 net_105:3 0.0282
6 net_105:4 0.3089
7 net_105:5 0.0253
8 net_105:6 0.3105
9 inst_146:A2 0.1881
10 net_105:7 0.3854
11 inst_141:A2 0.3580
12 net_105:8 0.2154
13 net_105:9 0.4921
14 net_105:10 0.1648
15 inst_148:A2 0.1855
*RES
2 inst_113:ZN net_105:1 0.1405
3 net_105:1 net_105:2 0.0668
4 net_105:2 inst_143:A2 0.3699
5 net_105:1 net_105:3 0.2034
6 net_105:3 net_105:4 0.1592
7 net_105:4 net_105:5 0.3147
8 net_105:5 net_105:6 0.2761
9 net_105:6 inst_146:A2 0.3643
10 net_105:3 net_105:7 0.3774
11 net_105:7 inst_141:A2 0.2731
12 net_105:1 net_105:8 0.0112
13 net_105:8 net_105:9 0.3530
14 net_105:9 net_105:10 0.1128
15 net_105:10 inst_148:A2 0.2239
*END

*D_NET net_62 0.9170
*CONN
*I inst_54:ZN O
*I inst_63:A I
*CAP
1 inst_54:ZN 0.4230
2 net_62:1 0.3290
3 net_62:2 0.1620
4 inst_63:A 0.0029
*RES
2 inst_54:ZN net_62:1 0.2883
3 net_62:1 net_62:2 0.1903
4 net_62:2 inst_63:A 0.4381
*END

*D_NET net_6 0.3519
*CONN
*I inst_129:ZN O
*I inst_58:B I
*CAP
1 inst_129:ZN 0.0801
2 net_6:1 0.1891
3 net_6:2 0.0464
4 inst_58:B 0.0364
*RES
2 inst_129:ZN net_6:1 0.0279
3 net_6:1 net_6:2 0.4104
4 net_6:2 inst_58:B 0.0649
*END

*D_NET nid13 3.8222
*CONN
*P nid13 I
*I inst_100:A I
*I inst_11:B I
*I inst_14:A I
*CAP
1 nid13 0.1600
2 nid13:1 0.4787
3 nid13:2 0.1076
4 inst_100:A 0.4606
5 nid13:3 0.0580
6 inst_11:B 0.3736
7 nid13:4 0.3877
8 nid13:5 0.3882
9 nid13:6 0.4950
10 nid13:7 0.0413
11 nid13:8 0.4651
12 inst_14:A 0.4065
*RES
2 nid13 nid13:1 0.3388
3 nid13:1 nid13:2 0.4657
4 nid13:2 inst_100:A 0.3595
5 nid13:1 nid13:3 0.0395
6 nid13:3 inst_11:B 0.3644
7 nid13:2 nid13:4 0.3164
8 nid13:4 nid13:5 0.3513
9 nid13:5 nid13:6 0.1165
10 nid13:6 nid13:7 0.0986
11 nid13:7 nid13:8 0.2243
12 nid13:8 inst_14:A 0.1286
*END

*D_NET net_129 1.4306
*CONN
*I inst_160:ZN O
*I inst_105:B I
*CAP
1 inst_160:ZN 0.2482
2 net_129:1 0.1533
3 net_129:2 0.4091
4 net_129:3 0.2613
5 inst_105:B 0.3587
*RES
2 inst_160:ZN net_129:1 0.1869
3 net_129:1 net_129:2 0.4974
4 net_129:2 net_129:3 0.3047
5 net_129:3 inst_105:B 0.1200
*END

*D_NET net_98 0.5270
*CONN
*I inst_140:ZN O
*I inst_94:B I
*CAP
1 inst_140:ZN 0.1210
2 net_98:1 0.1014
3 net_98:2 0.0283
4 inst_94:B 0.2763
*RES
2 inst_140:ZN net_98:1 0.2945
3 net_98:1 net_98:2 0.3177
4 net_98:2 inst_94:B 0.2101
*END

*D_NET net_119 1.4286
*CONN
*I inst_154:ZN O
*I inst_97:B I
*CAP
1 inst_154:ZN 0.2046
2 net_119:1 0.1317
3 net_119:2 0.3617
4 net_119:3 0.0856
5 net_119:4 0.3629
6 inst_97:B 0.2821
*RES
2 inst_154:ZN net_119:1 0.3900
3 net_119:1 net_119:2 0.0557
4 net_119:2 net_119:3 0.1253
5 net_119:3 net_119:4 0.2716
6 net_119:4 inst_97:B 0.3735
*END

*D_NET net_23 1.5454
*CONN
*I inst_28:ZN O
*I inst_44:B I
*CAP
1 inst_28:ZN 0.3323
2 net_23:1 0.0362
3 net_23:2 0.4966
4 net_23:3 0.4101
5 inst_44:B 0.2702
*RES
2 inst_28:ZN net_23:1 0.2135
3 net_23:1 net_23:2 0.0419
4 net_23:2 net_23:3 0.2773
5 net_23:3 inst_44:B 0.0903
*END

*D_NET net_12 2.3457
*CONN
*I inst_3:Z O
*I inst_32:A I
*CAP
1 inst_3:Z 0.4602
2 net_12:1 0.2009
3 net_12:2 0.3114
4 net_12:3 0.3090
5 net_12:4 0.3972
6 net_12:5 0.4228
7 inst_32:A 0.2443
*RES
2 inst_3:Z net_12:1 0.2458
3 net_12:1 net_12:2 0.3734
4 net_12:2 net_12:3 0.1567
5 net_12:3 net_12:4 0.1247
6 net_12:4 net_12:5 0.2439
7 net_12:5 inst_32:A 0.2588
*END

*D_NET net_117 6.7891
*CONN
*I inst_67:ZN O
*I inst_131:A1 I
*I inst_153:A1 I
*I inst_107:A1 I
*I inst_146:A1 I
*I inst_108:A2 I
*I inst_152:A1 I
*I inst_163:A1 I
*CAP
1 inst_67:ZN 0.3528
2 net_117:1 0.4436
3 inst_163:A1 0.1981
4 net_117:2 0.0423
5 inst_153:A1 0.2861
6 net_117:3 0.0209
7 net_117:4 0.4380
8 inst_107:A1 0.4130
9 net_117:5 0.4464
10 net_117:6 0.2438
11 net_117:7 0.2969
12 inst_146:A1 0.3091
13 net_117:8 0.2618
14 net_117:9 0.2468
15 net_117:10 0.4002
16 net_117:11 0.3652
17 inst_108:A2 0.1857
18 net_117:12 0.1130
19 net_117:13 0.1026
20 inst_152:A1 0.1939
21 net_117:14 0.1138
22 net_117:15 0.4033
23 net_117:16 0.3663
24 net_117:17 0.2540
25 net_117:18 0.0526
26 inst_131:A1 0.2388
*RES
2 inst_67:ZN net_117:1 0.3275
3 net_117:1 inst_163:A1 0.0169
4 net_117:1 net_117:2 0.4278
5 net_117:2 inst_153:A1 0.3875
6 net_117:2 net_117:3 0.4990
7 net_117:3 net_117:4 0.2134
8 net_117:4 inst_107:A1 0.1115
9 net_117:3 net_117:5 0.5006
10 net_117:5 net_117:6 0.2264
11 net_117:6 net_117:7 0.3973
12 net_117:7 inst_146:A1 0.2044
13 net_117:2 net_117:8 0.0562
14 net_117:8 net_117:9 0.0882
15 net_117:9 net_117:10 0.4386
16 net_117:10 net_117:11 0.2715
17 net_117:11 inst_108:A2 0.0199
18 net_117:10 net_117:12 0.1095
19 net_117:12 net_117:13 0.0212
20 net_117:13 inst_152:A1 0.1417
21 net_117:5 net_117:14 0.1787
22 net_117:14 net_117:15 0.3603
23 net_117:15 net_117:16 0.0603
24 net_117:16 net_117:17 0.0863
25 net_117:17 net_117:18 0.3102
26 net_117:18 inst_131:A1 0.1239
*END

*D_NET net_74 1.6234
*CONN
*I inst_72:ZN O
*I inst_106:A3 I
*CAP
1 inst_72:ZN 0.0055
2 net_74:1 0.2412
3 net_74:2 0.3995
4 net_74:3 0.4441
5 net_74:4 0.4218
6 net_74:5 0.0848
7 inst_106:A3 0.0266
*RES
2 inst_72:ZN net_74:1 0.0274
3 net_74:1 net_74:2 0.4218
4 net_74:2 net_74:3 0.2061
5 net_74:3 net_74:4 0.2110
6 net_74:4 net_74:5 0.4583
7 net_74:5 inst_106:A3 0.3985
*END

*D_NET net_53 1.9898
*CONN
*I inst_49:ZN O
*I inst_57:A I
*CAP
1 inst_49:ZN 0.0725
2 net_53:1 0.3124
3 net_53:2 0.3685
4 net_53:3 0.4317
5 net_53:4 0.1801
6 net_53:5 0.2826
7 inst_57:A 0.3420
*RES
2 inst_49:ZN net_53:1 0.0965
3 net_53:1 net_53:2 0.2555
4 net_53:2 net_53:3 0.1304
5 net_53:3 net_53:4 0.3675
6 net_53:4 net_53:5 0.4634
7 net_53:5 inst_57:A 0.2869
*END

*D_NET net_93 1.5530
*CONN
*I inst_132:ZN O
*I inst_134:A1 I
*I inst_114:A1 I
*I inst_113:A1 I
*CAP
1 inst_132:ZN 0.1182
2 net_93:1 0.0608
3 inst_134:A1 0.3721
4 net_93:2 0.0264
5 net_93:3 0.2502
6 inst_114:A1 0.2506
7 net_93:4 0.1704
8 net_93:5 0.2303
9 net_93:6 0.0121
10 inst_113:A1 0.0620
*RES
2 inst_132:ZN net_93:1 0.4648
3 net_93:1 inst_134:A1 0.2376
4 net_93:1 net_93:2 0.4486
5 net_93:2 net_93:3 0.0641
6 net_93:3 inst_114:A1 0.0138
7 net_93:1 net_93:4 0.0267
8 net_93:4 net_93:5 0.1278
9 net_93:5 net_93:6 0.1079
10 net_93:6 inst_113:A1 0.3621
*END

*D_NET nid3 2.8222
*CONN
*P nid3 I
*I inst_8:B I
*I inst_25:A I
*I inst_82:A I
*CAP
1 nid3 0.3490
2 nid3:1 0.3195
3 nid3:2 0.4748
4 nid3:3 0.2505
5 nid3:4 0.2036
6 nid3:5 0.3990
7 inst_8:B 0.0185
8 nid3:6 0.0406
9 nid3:7 0.0917
10 nid3:8 0.0078
11 inst_25:A 0.0227
12 nid3:9 0.3987
13 nid3:10 0.0209
14 nid3:11 0.1182
15 inst_82:A 0.1067
*RES
2 nid3 nid3:1 0.3777
3 nid3:1 nid3:2 0.2437
4 nid3:2 nid3:3 0.3641
5 nid3:3 nid3:4 0.1411
6 nid3:4 nid3:5 0.2452
7 nid3:5 inst_8:B 0.2723
8 nid3:2 nid3:6 0.0264
9 nid3:6 nid3:7 0.0174
10 nid3:7 nid3:8 0.1906
11 nid3:8 inst_25:A 0.1553
12 nid3:2 nid3:9 0.4881
13 nid3:9 nid3:10 0.3672
14 nid3:10 nid3:11 0.4629
15 nid3:11 inst_82:A 0.1157
*END

*D_NET nic3 1.8683
*CONN
*P nic3 I
*I inst_126:A1 I
*CAP
1 nic3 0.2138
2 nic3:1 0.2979
3 nic3:2 0.3428
4 nic3:3 0.2325
5 nic3:4 0.2733
6 nic3:5 0.1266
7 inst_126:A1 0.3814
*RES
2 nic3 nic3:1 0.1363
3 nic3:1 nic3:2 0.3277
4 nic3:2 nic3:3 0.3144
5 nic3:3 nic3:4 0.4503
6 nic3:4 nic3:5 0.3676
7 nic3:5 inst_126:A1 0.1603
*END

*D_NET net_130 1.5235
*CONN
*I inst_161:ZN O
*I inst_90:B I
*CAP
1 inst_161:ZN 0.1159
2 net_130:1 0.1465
3 net_130:2 0.1463
4 net_130:3 0.4621
5 net_130:4 0.4065
6 net_130:5 0.0227
7 inst_90:B 0.2236
*RES
2 inst_161:ZN net_130:1 0.4114
3 net_130:1 net_130:2 0.0715
4 net_130:2 net_130:3 0.1546
5 net_130:3 net_130:4 0.1861
6 net_130:4 net_130:5 0.4367
7 net_130:5 inst_90:B 0.3452
*END

*D_NET nid23 3.2526
*CONN
*P nid23 I
*I inst_24:A I
*I inst_0:A I
*I inst_89:A I
*CAP
1 nid23 0.1217
2 nid23:1 0.1222
3 inst_24:A 0.0613
4 nid23:2 0.2603
5 nid23:3 0.2874
6 nid23:4 0.3072
7 inst_0:A 0.2768
8 nid23:5 0.4796
9 nid23:6 0.3806
10 nid23:7 0.4946
11 inst_89:A 0.4608
*RES
2 nid23 nid23:1 0.1692
3 nid23:1 inst_24:A 0.4407
4 nid23:1 nid23:2 0.1679
5 nid23:2 nid23:3 0.2053
6 nid23:3 nid23:4 0.2140
7 nid23:4 inst_0:A 0.3306
8 nid23:2 nid23:5 0.4692
9 nid23:5 nid23:6 0.4766
10 nid23:6 nid23:7 0.0589
11 nid23:7 inst_89:A 0.0962
*END

*D_NET nod26 1.3235
*CONN
*I inst_86:ZN O
*P nod26 O
*CAP
1 inst_86:ZN 0.1750
2 nod26:1 0.0845
3 nod26:2 0.1888
4 nod26:3 0.1436
5 nod26:4 0.1762
6 nod26:5 0.4748
7 nod26 0.0806
*RES
2 inst_86:ZN nod26:1 0.0407
3 nod26:1 nod26:2 0.2069
4 nod26:2 nod26:3 0.0491
5 nod26:3 nod26:4 0.4137
6 nod26:4 nod26:5 0.3046
7 nod26:5 nod26 0.2987
*END

*D_NET nid26 3.5605
*CONN
*P nid26 I
*I inst_19:B I
*I inst_86:A I
*I inst_13:B I
*CAP
1 nid26 0.1831
2 nid26:1 0.0191
3 nid26:2 0.3538
4 nid26:3 0.4300
5 nid26:4 0.3629
6 nid26:5 0.0787
7 inst_86:A 0.2007
8 nid26:6 0.4911
9 nid26:7 0.2002
10 nid26:8 0.2573
11 inst_19:B 0.3761
12 nid26:9 0.1738
13 inst_13:B 0.4336
*RES
2 nid26 nid26:1 0.2971
3 nid26:1 nid26:2 0.4025
4 nid26:2 nid26:3 0.5010
5 nid26:3 nid26:4 0.3538
6 nid26:4 nid26:5 0.4649
7 nid26:5 inst_86:A 0.0482
8 nid26:1 nid26:6 0.0616
9 nid26:6 nid26:7 0.4298
10 nid26:7 nid26:8 0.2857
11 nid26:8 inst_19:B 0.2634
12 nid26:1 nid26:9 0.4556
13 nid26:9 inst_13:B 0.1284
*END

*D_NET net_127 1.6488
*CONN
*I inst_159:ZN O
*I inst_89:B I
*CAP
1 inst_159:ZN 0.1731
2 net_127:1 0.3095
3 net_127:2 0.4895
4 net_127:3 0.4033
5 inst_89:B 0.2734
*RES
2 inst_159:ZN net_127:1 0.3461
3 net_127:1 net_127:2 0.3729
4 net_127:2 net_127:3 0.0418
5 net_127:3 inst_89:B 0.3671
*END

*D_NET net_14 1.1766
*CONN
*I inst_5:Z O
*I inst_46:A I
*CAP
1 inst_5:Z 0.1458
2 net_14:1 0.0683
3 net_14:2 0.2135
4 net_14:3 0.4484
5 net_14:4 0.1379
6 net_14:5 0.1139
7 inst_46:A 0.0489
*RES
2 inst_5:Z net_14:1 0.0861
3 net_14:1 net_14:2 0.1477
4 net_14:2 net_14:3 0.4806
5 net_14:3 net_14:4 0.3473
6 net_14:4 net_14:5 0.1114
7 net_14:5 inst_46:A 0.0198
*END

*D_NET nid9 3.5229
*CONN
*P nid9 I
*I inst_5:A I
*I inst_11:A I
*I inst_74:A I
*CAP
1 nid9 0.1100
2 nid9:1 0.3290
3 nid9:2 0.1592
4 nid9:3 0.4236
5 inst_11:A 0.3328
6 nid9:4 0.4963
7 inst_5:A 0.2377
8 nid9:5 0.3400
9 nid9:6 0.2352
10 nid9:7 0.3112
11 nid9:8 0.1345
12 inst_74:A 0.4134
*RES
2 nid9 nid9:1 0.1906
3 nid9:1 nid9:2 0.5003
4 nid9:2 nid9:3 0.4347
5 nid9:3 inst_11:A 0.3044
6 nid9:1 nid9:4 0.2571
7 nid9:4 inst_5:A 0.3610
8 nid9:3 nid9:5 0.0741
9 nid9:5 nid9:6 0.4290
10 nid9:6 nid9:7 0.4891
11 nid9:7 nid9:8 0.0621
12 nid9:8 inst_74:A 0.2122
*END

*D_NET net_113 0.7629
*CONN
*I inst_151:ZN O
*I inst_86:B I
*CAP
1 inst_151:ZN 0.1253
2 net_113:1 0.2343
3 net_113:2 0.1106
4 net_113:3 0.0283
5 inst_86:B 0.2644
*RES
2 inst_151:ZN net_113:1 0.3395
3 net_113:1 net_113:2 0.4160
4 net_113:2 net_113:3 0.1311
5 net_113:3 inst_86:B 0.1702
*END

*D_NET net_26 0.8144
*CONN
*I inst_30:ZN O
*I inst_36:B I
*CAP
1 inst_30:ZN 0.0383
2 net_26:1 0.2177
3 net_26:2 0.0520
4 net_26:3 0.1787
5 inst_36:B 0.3277
*RES
2 inst_30:ZN net_26:1 0.2308
3 net_26:1 net_26:2 0.1825
4 net_26:2 net_26:3 0.4154
5 net_26:3 inst_36:B 0.4205
*END

*D_NET net_76 0.9305
*CONN
*I inst_133:ZN O
*I inst_118:A3 I
*CAP
1 inst_133:ZN 0.3303
2 net_76:1 0.3450
3 inst_118:A3 0.2552
*RES
2 inst_133:ZN net_76:1 0.2397
3 net_76:1 inst_118:A3 0.3943
*END

*D_NET nid7 2.4171
*CONN
*P nid7 I
*I inst_76:A I
*I inst_8:A I
*I inst_29:A I
*CAP
1 nid7 0.3586
2 nid7:1 0.2132
3 nid7:2 0.3448
4 inst_76:A 0.2539
5 nid7:3 0.3825
6 inst_8:A 0.4916
7 nid7:4 0.0730
8 inst_29:A 0.2996
*RES
2 nid7 nid7:1 0.0169
3 nid7:1 nid7:2 0.2910
4 nid7:2 inst_76:A 0.3418
5 nid7:1 nid7:3 0.0258
6 nid7:3 inst_8:A 0.0722
7 nid7:1 nid7:4 0.1500
8 nid7:4 inst_29:A 0.2720
*END

*D_NET net_32 1.4119
*CONN
*I inst_18:Z O
*I inst_41:A I
*CAP
1 inst_18:Z 0.1555
2 net_32:1 0.2976
3 net_32:2 0.3531
4 net_32:3 0.0316
5 net_32:4 0.1823
6 net_32:5 0.0755
7 inst_41:A 0.3163
*RES
2 inst_18:Z net_32:1 0.3515
3 net_32:1 net_32:2 0.2983
4 net_32:2 net_32:3 0.4269
5 net_32:3 net_32:4 0.0493
6 net_32:4 net_32:5 0.0341
7 net_32:5 inst_41:A 0.3020
*END

*D_NET net_101 1.2913
*CONN
*I inst_142:ZN O
*I inst_78:B I
*CAP
1 inst_142:ZN 0.4000
2 net_101:1 0.4709
3 inst_78:B 0.4204
*RES
2 inst_142:ZN net_101:1 0.0122
3 net_101:1 inst_78:B 0.2688
*END

*D_NET nic6 0.9187
*CONN
*P nic6 I
*I inst_124:A1 I
*CAP
1 nic6 0.3051
2 nic6:1 0.2956
3 nic6:2 0.2210
4 inst_124:A1 0.0970
*RES
2 nic6 nic6:1 0.2798
3 nic6:1 nic6:2 0.3150
4 nic6:2 inst_124:A1 0.0137
*END

*D_NET net_111 0.8876
*CONN
*I inst_150:ZN O
*I inst_85:B I
*CAP
1 inst_150:ZN 0.3101
2 net_111:1 0.2047
3 inst_85:B 0.3729
*RES
2 inst_150:ZN net_111:1 0.0610
3 net_111:1 inst_85:B 0.4010
*END

*D_NET net_90 3.6718
*CONN
*I inst_131:ZN O
*I inst_133:A2 I
*I inst_111:A2 I
*I inst_117:A1 I
*CAP
1 inst_131:ZN 0.3768
2 net_90:1 0.1250
3 net_90:2 0.3526
4 net_90:3 0.3715
5 net_90:4 0.3144
6 inst_111:A2 0.3618
7 net_90:5 0.4981
8 net_90:6 0.3134
9 net_90:7 0.4059
10 net_90:8 0.1396
11 inst_133:A2 0.0910
12 net_90:9 0.0712
13 net_90:10 0.0044
14 net_90:11 0.1986
15 inst_117:A1 0.0476
*RES
2 inst_131:ZN net_90:1 0.0820
3 net_90:1 net_90:2 0.2174
4 net_90:2 net_90:3 0.3638
5 net_90:3 net_90:4 0.4097
6 net_90:4 inst_111:A2 0.2418
7 net_90:4 net_90:5 0.1278
8 net_90:5 net_90:6 0.3093
9 net_90:6 net_90:7 0.3342
10 net_90:7 net_90:8 0.2150
11 net_90:8 inst_133:A2 0.0109
12 net_90:4 net_90:9 0.0521
13 net_90:9 net_90:10 0.0546
14 net_90:10 net_90:11 0.0043
15 net_90:11 inst_117:A1 0.2737
*END

*D_NET net_40 1.2711
*CONN
*I inst_33:ZN O
*I inst_69:A I
*CAP
1 inst_33:ZN 0.2677
2 net_40:1 0.1466
3 net_40:2 0.2784
4 net_40:3 0.2008
5 inst_69:A 0.3776
*RES
2 inst_33:ZN net_40:1 0.2937
3 net_40:1 net_40:2 0.0093
4 net_40:2 net_40:3 0.2822
5 net_40:3 inst_69:A 0.4311
*END

*D_NET nod7 1.6512
*CONN
*I inst_76:ZN O
*P nod7 O
*CAP
1 inst_76:ZN 0.1138
2 nod7:1 0.3567
3 nod7:2 0.3242
4 nod7:3 0.2336
5 nod7:4 0.3863
6 nod7 0.2365
*RES
2 inst_76:ZN nod7:1 0.1037
3 nod7:1 nod7:2 0.3572
4 nod7:2 nod7:3 0.2211
5 nod7:3 nod7:4 0.2185
6 nod7:4 nod7 0.2266
*END

*D_NET net_100 5.0398
*CONN
*I inst_110:ZN O
*I inst_138:A2 I
*I inst_139:A2 I
*I inst_142:A2 I
*I inst_158:A2 I
*CAP
1 inst_110:ZN 0.1297
2 net_100:1 0.2417
3 net_100:2 0.2444
4 net_100:3 0.4262
5 net_100:4 0.3737
6 net_100:5 0.3015
7 inst_142:A2 0.1830
8 net_100:6 0.1111
9 net_100:7 0.3711
10 net_100:8 0.0512
11 inst_139:A2 0.1351
12 net_100:9 0.3234
13 net_100:10 0.4610
14 inst_138:A2 0.4832
15 net_100:11 0.4556
16 net_100:12 0.1835
17 net_100:13 0.0020
18 net_100:14 0.2614
19 inst_158:A2 0.3010
*RES
2 inst_110:ZN net_100:1 0.3035
3 net_100:1 net_100:2 0.4053
4 net_100:2 net_100:3 0.0863
5 net_100:3 net_100:4 0.2362
6 net_100:4 net_100:5 0.1365
7 net_100:5 inst_142:A2 0.0277
8 net_100:5 net_100:6 0.0984
9 net_100:6 net_100:7 0.0368
10 net_100:7 net_100:8 0.4376
11 net_100:8 inst_139:A2 0.1423
12 net_100:2 net_100:9 0.2776
13 net_100:9 net_100:10 0.3781
14 net_100:10 inst_138:A2 0.3766
15 net_100:4 net_100:11 0.2164
16 net_100:11 net_100:12 0.4372
17 net_100:12 net_100:13 0.1158
18 net_100:13 net_100:14 0.1153
19 net_100:14 inst_158:A2 0.3810
*END

*D_NET nod4 1.4651
*CONN
*I inst_79:ZN O
*P nod4 O
*CAP
1 inst_79:ZN 0.1662
2 nod4:1 0.2541
3 nod4:2 0.2497
4 nod4:3 0.4625
5 nod4:4 0.2343
6 nod4 0.0981
*RES
2 inst_79:ZN nod4:1 0.3461
3 nod4:1 nod4:2 0.2382
4 nod4:2 nod4:3 0.4109
5 nod4:3 nod4:4 0.0945
6 nod4:4 nod4 0.2326
*END

*D_NET net_69 0.7650
*CONN
*I inst_61:ZN O
*I inst_65:B I
*CAP
1 inst_61:ZN 0.2674
2 net_69:1 0.0414
3 net_69:2 0.2455
4 net_69:3 0.1970
5 inst_65:B 0.0138
*RES
2 inst_61:ZN net_69:1 0.4527
3 net_69:1 net_69:2 0.3131
4 net_69:2 net_69:3 0.4392
5 net_69:3 inst_65:B 0.4048
*END

*D_NET net_85 2.4604
*CONN
*I inst_135:ZN O
*I inst_122:A3 I
*I inst_137:A2 I
*CAP
1 inst_135:ZN 0.3283
2 net_85:1 0.4199
3 net_85:2 0.3736
4 net_85:3 0.3306
5 inst_122:A3 0.3042
6 net_85:4 0.0758
7 net_85:5 0.0262
8 net_85:6 0.3812
9 net_85:7 0.0656
10 inst_137:A2 0.1550
*RES
2 inst_135:ZN net_85:1 0.1317
3 net_85:1 net_85:2 0.1481
4 net_85:2 net_85:3 0.2485
5 net_85:3 inst_122:A3 0.2201
6 net_85:2 net_85:4 0.0047
7 net_85:4 net_85:5 0.1418
8 net_85:5 net_85:6 0.2138
9 net_85:6 net_85:7 0.3805
10 net_85:7 inst_137:A2 0.2523
*END

*D_NET nid5 3.4785
*CONN
*P nid5 I
*I inst_78:A I
*I inst_22:A I
*I inst_21:A I
*CAP
1 nid5 0.4938
2 nid5:1 0.2131
3 nid5:2 0.3201
4 nid5:3 0.0320
5 nid5:4 0.2786
6 inst_78:A 0.3378
7 nid5:5 0.3351
8 nid5:6 0.4105
9 nid5:7 0.3004
10 inst_22:A 0.3665
11 nid5:8 0.0294
12 nid5:9 0.0059
13 inst_21:A 0.3552
*RES
2 nid5 nid5:1 0.4364
3 nid5:1 nid5:2 0.2454
4 nid5:2 nid5:3 0.4527
5 nid5:3 nid5:4 0.2663
6 nid5:4 inst_78:A 0.3641
7 nid5:2 nid5:5 0.1341
8 nid5:5 nid5:6 0.0859
9 nid5:6 nid5:7 0.1706
10 nid5:7 inst_22:A 0.3812
11 nid5:1 nid5:8 0.3839
12 nid5:8 nid5:9 0.1840
13 nid5:9 inst_21:A 0.4010
*END

*D_NET net_124 6.8985
*CONN
*I inst_111:ZN O
*I inst_167:A2 I
*I inst_157:A2 I
*I inst_144:A2 I
*I inst_149:A2 I
*CAP
1 inst_111:ZN 0.4559
2 net_124:1 0.1715
3 net_124:2 0.3050
4 net_124:3 0.3594
5 net_124:4 0.4902
6 inst_144:A2 0.4716
7 net_124:5 0.3308
8 net_124:6 0.4080
9 net_124:7 0.4669
10 net_124:8 0.1932
11 inst_157:A2 0.0675
12 net_124:9 0.4574
13 net_124:10 0.4683
14 net_124:11 0.1543
15 net_124:12 0.4873
16 inst_167:A2 0.1669
17 net_124:13 0.4210
18 net_124:14 0.2594
19 net_124:15 0.3565
20 inst_149:A2 0.4074
*RES
2 inst_111:ZN net_124:1 0.2112
3 net_124:1 net_124:2 0.1762
4 net_124:2 net_124:3 0.1166
5 net_124:3 net_124:4 0.1660
6 net_124:4 inst_144:A2 0.2177
7 net_124:3 net_124:5 0.0053
8 net_124:5 net_124:6 0.1459
9 net_124:6 net_124:7 0.0437
10 net_124:7 net_124:8 0.4598
11 net_124:8 inst_157:A2 0.3838
12 net_124:4 net_124:9 0.4800
13 net_124:9 net_124:10 0.4518
14 net_124:10 net_124:11 0.0570
15 net_124:11 net_124:12 0.4909
16 net_124:12 inst_167:A2 0.0572
17 net_124:3 net_124:13 0.4309
18 net_124:13 net_124:14 0.4474
19 net_124:14 net_124:15 0.2931
20 net_124:15 inst_149:A2 0.2848
*END

*D_NET nid25 3.4330
*CONN
*P nid25 I
*I inst_12:B I
*I inst_18:A I
*I inst_87:A I
*CAP
1 nid25 0.3320
2 nid25:1 0.3663
3 nid25:2 0.1512
4 nid25:3 0.1368
5 nid25:4 0.4493
6 inst_18:A 0.4663
7 nid25:5 0.3075
8 nid25:6 0.0604
9 inst_12:B 0.3908
10 nid25:7 0.3010
11 nid25:8 0.1515
12 nid25:9 0.0492
13 inst_87:A 0.2707
*RES
2 nid25 nid25:1 0.2866
3 nid25:1 nid25:2 0.1873
4 nid25:2 nid25:3 0.1599
5 nid25:3 nid25:4 0.3589
6 nid25:4 inst_18:A 0.4697
7 nid25:3 nid25:5 0.2921
8 nid25:5 nid25:6 0.4162
9 nid25:6 inst_12:B 0.1285
10 nid25:5 nid25:7 0.0711
11 nid25:7 nid25:8 0.2365
12 nid25:8 nid25:9 0.0021
13 nid25:9 inst_87:A 0.2080
*END

*D_NET nid15 4.6226
*CONN
*P nid15 I
*I inst_31:A I
*I inst_3:A I
*I inst_98:A I
*CAP
1 nid15 0.4886
2 nid15:1 0.4404
3 nid15:2 0.3187
4 nid15:3 0.4272
5 nid15:4 0.0224
6 inst_98:A 0.4026
7 nid15:5 0.2614
8 nid15:6 0.1530
9 inst_3:A 0.2582
10 nid15:7 0.2666
11 nid15:8 0.4255
12 nid15:9 0.4671
13 nid15:10 0.2972
14 inst_31:A 0.3936
*RES
2 nid15 nid15:1 0.2784
3 nid15:1 nid15:2 0.1803
4 nid15:2 nid15:3 0.0882
5 nid15:3 nid15:4 0.2924
6 nid15:4 inst_98:A 0.4780
7 nid15:4 nid15:5 0.4484
8 nid15:5 nid15:6 0.0762
9 nid15:6 inst_3:A 0.1986
10 nid15:6 nid15:7 0.4880
11 nid15:7 nid15:8 0.4169
12 nid15:8 nid15:9 0.3167
13 nid15:9 nid15:10 0.3376
14 nid15:10 inst_31:A 0.1073
*END

*D_NET nid18 3.2735
*CONN
*P nid18 I
*I inst_95:A I
*I inst_17:B I
*I inst_28:B I
*CAP
1 nid18 0.1300
2 nid18:1 0.2362
3 nid18:2 0.1908
4 nid18:3 0.1996
5 nid18:4 0.3123
6 inst_28:B 0.1251
7 nid18:5 0.4948
8 nid18:6 0.4038
9 nid18:7 0.1954
10 nid18:8 0.0063
11 inst_17:B 0.4904
12 nid18:9 0.2934
13 nid18:10 0.0661
14 nid18:11 0.0281
15 inst_95:A 0.1011
*RES
2 nid18 nid18:1 0.0048
3 nid18:1 nid18:2 0.3126
4 nid18:2 nid18:3 0.0195
5 nid18:3 nid18:4 0.0541
6 nid18:4 inst_28:B 0.3700
7 nid18:3 nid18:5 0.0915
8 nid18:5 nid18:6 0.4619
9 nid18:6 nid18:7 0.1065
10 nid18:7 nid18:8 0.1990
11 nid18:8 inst_17:B 0.2576
12 nid18:1 nid18:9 0.2539
13 nid18:9 nid18:10 0.0765
14 nid18:10 nid18:11 0.1980
15 nid18:11 inst_95:A 0.3226
*END

*D_NET net_141 2.4686
*CONN
*I inst_167:ZN O
*I inst_98:B I
*CAP
1 inst_167:ZN 0.2766
2 net_141:1 0.4267
3 net_141:2 0.4596
4 net_141:3 0.3295
5 net_141:4 0.4724
6 net_141:5 0.4631
7 inst_98:B 0.0407
*RES
2 inst_167:ZN net_141:1 0.4130
3 net_141:1 net_141:2 0.3462
4 net_141:2 net_141:3 0.0714
5 net_141:3 net_141:4 0.2110
6 net_141:4 net_141:5 0.2588
7 net_141:5 inst_98:B 0.0339
*END

*D_NET nid28 2.9481
*CONN
*P nid28 I
*I inst_84:A I
*I inst_30:B I
*I inst_9:A I
*CAP
1 nid28 0.4874
2 nid28:1 0.2489
3 inst_84:A 0.2584
4 nid28:2 0.2746
5 nid28:3 0.4228
6 inst_30:B 0.1417
7 nid28:4 0.2042
8 nid28:5 0.2030
9 nid28:6 0.2656
10 inst_9:A 0.4413
*RES
2 nid28 nid28:1 0.0346
3 nid28:1 inst_84:A 0.4333
4 nid28:1 nid28:2 0.3754
5 nid28:2 nid28:3 0.2016
6 nid28:3 inst_30:B 0.0068
7 nid28:3 nid28:4 0.1336
8 nid28:4 nid28:5 0.4042
9 nid28:5 nid28:6 0.0451
10 nid28:6 inst_9:A 0.2391
*END

*D_NET net_115 0.9045
*CONN
*I inst_152:ZN O
*I inst_96:B I
*CAP
1 inst_152:ZN 0.4146
2 net_115:1 0.2654
3 inst_96:B 0.2245
*RES
2 inst_152:ZN net_115:1 0.4797
3 net_115:1 inst_96:B 0.0551
*END

*D_NET net_4 1.5272
*CONN
*I inst_127:ZN O
*I inst_57:B I
*CAP
1 inst_127:ZN 0.0973
2 net_4:1 0.1903
3 net_4:2 0.2143
4 net_4:3 0.0701
5 net_4:4 0.2421
6 net_4:5 0.4634
7 inst_57:B 0.2497
*RES
2 inst_127:ZN net_4:1 0.2766
3 net_4:1 net_4:2 0.3086
4 net_4:2 net_4:3 0.2353
5 net_4:3 net_4:4 0.4838
6 net_4:4 net_4:5 0.0722
7 net_4:5 inst_57:B 0.3539
*END

*D_NET nid2 4.3399
*CONN
*P nid2 I
*I inst_6:B I
*I inst_93:A I
*I inst_25:B I
*CAP
1 nid2 0.0192
2 nid2:1 0.4054
3 nid2:2 0.3681
4 inst_25:B 0.4419
5 nid2:3 0.1374
6 nid2:4 0.1713
7 nid2:5 0.2153
8 nid2:6 0.3119
9 nid2:7 0.4918
10 inst_93:A 0.3583
11 nid2:8 0.4721
12 nid2:9 0.1185
13 nid2:10 0.4585
14 inst_6:B 0.3703
*RES
2 nid2 nid2:1 0.1561
3 nid2:1 nid2:2 0.1347
4 nid2:2 inst_25:B 0.0224
5 nid2:1 nid2:3 0.0251
6 nid2:3 nid2:4 0.0071
7 nid2:4 nid2:5 0.2242
8 nid2:5 nid2:6 0.4834
9 nid2:6 nid2:7 0.4589
10 nid2:7 inst_93:A 0.0098
11 nid2:5 nid2:8 0.0365
12 nid2:8 nid2:9 0.4409
13 nid2:9 nid2:10 0.4335
14 nid2:10 inst_6:B 0.3158
*END

*D_NET net_17 1.4639
*CONN
*I inst_8:Z O
*I inst_33:A I
*CAP
1 inst_8:Z 0.4798
2 net_17:1 0.1778
3 net_17:2 0.3155
4 inst_33:A 0.4909
*RES
2 inst_8:Z net_17:1 0.2285
3 net_17:1 net_17:2 0.2293
4 net_17:2 inst_33:A 0.4514
*END

*D_NET net_95 2.5041
*CONN
*I inst_109:ZN O
*I inst_134:A2 I
*I inst_115:A1 I
*I inst_116:A1 I
*CAP
1 inst_109:ZN 0.3442
2 net_95:1 0.2112
3 net_95:2 0.3238
4 inst_134:A2 0.1536
5 net_95:3 0.2665
6 inst_115:A1 0.4580
7 net_95:4 0.0719
8 net_95:5 0.2913
9 inst_116:A1 0.3837
*RES
2 inst_109:ZN net_95:1 0.2744
3 net_95:1 net_95:2 0.3973
4 net_95:2 inst_134:A2 0.0682
5 net_95:1 net_95:3 0.4392
6 net_95:3 inst_115:A1 0.4660
7 net_95:1 net_95:4 0.4308
8 net_95:4 net_95:5 0.4593
9 net_95:5 inst_116:A1 0.4578
*END

*D_NET net_78 1.6302
*CONN
*I inst_106:ZN O
*I inst_135:A1 I
*CAP
1 inst_106:ZN 0.4235
2 net_78:1 0.4330
3 net_78:2 0.3792
4 inst_135:A1 0.3945
*RES
2 inst_106:ZN net_78:1 0.1168
3 net_78:1 net_78:2 0.0632
4 net_78:2 inst_135:A1 0.3389
*END

*D_NET nid20 2.7950
*CONN
*P nid20 I
*I inst_15:A I
*I inst_20:B I
*I inst_92:A I
*CAP
1 nid20 0.0022
2 nid20:1 0.0342
3 nid20:2 0.1492
4 nid20:3 0.1342
5 nid20:4 0.2299
6 inst_20:B 0.4466
7 nid20:5 0.0259
8 nid20:6 0.3818
9 nid20:7 0.2326
10 nid20:8 0.3632
11 inst_15:A 0.2277
12 nid20:9 0.1519
13 inst_92:A 0.4158
*RES
2 nid20 nid20:1 0.0789
3 nid20:1 nid20:2 0.1418
4 nid20:2 nid20:3 0.2162
5 nid20:3 nid20:4 0.3480
6 nid20:4 inst_20:B 0.3423
7 nid20:3 nid20:5 0.1399
8 nid20:5 nid20:6 0.3067
9 nid20:6 nid20:7 0.2194
10 nid20:7 nid20:8 0.0694
11 nid20:8 inst_15:A 0.1731
12 nid20:4 nid20:9 0.0326
13 nid20:9 inst_92:A 0.2788
*END

*D_NET net_27 0.9590
*CONN
*I inst_31:ZN O
*I inst_33:B I
*CAP
1 inst_31:ZN 0.0975
2 net_27:1 0.3850
3 net_27:2 0.2235
4 inst_33:B 0.2530
*RES
2 inst_31:ZN net_27:1 0.0538
3 net_27:1 net_27:2 0.1085
4 net_27:2 inst_33:B 0.3839
*END

*D_NET net_56 2.5573
*CONN
*I inst_41:ZN O
*I inst_55:A I
*I inst_51:A I
*CAP
1 inst_41:ZN 0.1655
2 net_56:1 0.3040
3 net_56:2 0.3068
4 net_56:3 0.1313
5 net_56:4 0.0490
6 inst_55:A 0.1490
7 net_56:5 0.4065
8 net_56:6 0.3838
9 net_56:7 0.2328
10 net_56:8 0.0616
11 inst_51:A 0.3670
*RES
2 inst_41:ZN net_56:1 0.4082
3 net_56:1 net_56:2 0.0586
4 net_56:2 net_56:3 0.2553
5 net_56:3 net_56:4 0.4766
6 net_56:4 inst_55:A 0.4662
7 net_56:1 net_56:5 0.3852
8 net_56:5 net_56:6 0.1467
9 net_56:6 net_56:7 0.2409
10 net_56:7 net_56:8 0.4071
11 net_56:8 inst_51:A 0.2078
*END

*D_NET net_87 1.4958
*CONN
*I inst_137:ZN O
*I inst_110:A3 I
*I inst_111:A3 I
*CAP
1 inst_137:ZN 0.2212
2 net_87:1 0.1904
3 inst_110:A3 0.2527
4 net_87:2 0.0062
5 net_87:3 0.2799
6 net_87:4 0.1542
7 net_87:5 0.1497
8 inst_111:A3 0.2415
*RES
2 inst_137:ZN net_87:1 0.0491
3 net_87:1 inst_110:A3 0.0298
4 net_87:1 net_87:2 0.4946
5 net_87:2 net_87:3 0.2980
6 net_87:3 net_87:4 0.1661
7 net_87:4 net_87:5 0.4120
8 net_87:5 inst_111:A3 0.1627
*END

*D_NET nod19 1.1896
*CONN
*I inst_94:ZN O
*P nod19 O
*CAP
1 inst_94:ZN 0.3748
2 nod19:1 0.1204
3 nod19:2 0.0927
4 nod19:3 0.1679
5 nod19:4 0.0593
6 nod19 0.3745
*RES
2 inst_94:ZN nod19:1 0.1708
3 nod19:1 nod19:2 0.0756
4 nod19:2 nod19:3 0.2634
5 nod19:3 nod19:4 0.4707
6 nod19:4 nod19 0.4356
*END

*D_NET nod28 1.1013
*CONN
*I inst_84:ZN O
*P nod28 O
*CAP
1 inst_84:ZN 0.1695
2 nod28:1 0.3553
3 nod28:2 0.1500
4 nod28 0.4264
*RES
2 inst_84:ZN nod28:1 0.0163
3 nod28:1 nod28:2 0.2331
4 nod28:2 nod28 0.4626
*END

*D_NET net_0 0.1862
*CONN
*I inst_123:ZN O
*I inst_61:B I
*CAP
1 inst_123:ZN 0.1724
2 net_0:1 0.0020
3 inst_61:B 0.0117
*RES
2 inst_123:ZN net_0:1 0.2437
3 net_0:1 inst_61:B 0.2268
*END

*D_NET nid0 3.5570
*CONN
*P nid0 I
*I inst_105:A I
*I inst_16:B I
*I inst_10:B I
*CAP
1 nid0 0.0296
2 nid0:1 0.1876
3 nid0:2 0.0595
4 nid0:3 0.2550
5 inst_16:B 0.4579
6 nid0:4 0.3670
7 nid0:5 0.0788
8 nid0:6 0.0125
9 nid0:7 0.4083
10 inst_105:A 0.2037
11 nid0:8 0.3686
12 nid0:9 0.1667
13 nid0:10 0.4317
14 nid0:11 0.1120
15 nid0:12 0.0039
16 inst_10:B 0.4142
*RES
2 nid0 nid0:1 0.3006
3 nid0:1 nid0:2 0.2535
4 nid0:2 nid0:3 0.2194
5 nid0:3 inst_16:B 0.1135
6 nid0:3 nid0:4 0.1594
7 nid0:4 nid0:5 0.3957
8 nid0:5 nid0:6 0.3077
9 nid0:6 nid0:7 0.4522
10 nid0:7 inst_105:A 0.3100
11 nid0:3 nid0:8 0.1371
12 nid0:8 nid0:9 0.2330
13 nid0:9 nid0:10 0.4566
14 nid0:10 nid0:11 0.2890
15 nid0:11 nid0:12 0.4585
16 nid0:12 inst_10:B 0.4359
*END

*D_NET net_35 0.7179
*CONN
*I inst_21:Z O
*I inst_42:A I
*CAP
1 inst_21:Z 0.4771
2 net_35:1 0.0595
3 net_35:2 0.0997
4 inst_42:A 0.0816
*RES
2 inst_21:Z net_35:1 0.0662
3 net_35:1 net_35:2 0.4666
4 net_35:2 inst_42:A 0.1226
*END

*D_NET net_22 1.2856
*CONN
*I inst_12:Z O
*I inst_39:A I
*CAP
1 inst_12:Z 0.1999
2 net_22:1 0.3714
3 net_22:2 0.1596
4 net_22:3 0.2815
5 inst_39:A 0.2732
*RES
2 inst_12:Z net_22:1 0.4508
3 net_22:1 net_22:2 0.0764
4 net_22:2 net_22:3 0.0865
5 net_22:3 inst_39:A 0.1765
*END

*D_NET net_16 2.0500
*CONN
*I inst_7:Z O
*I inst_43:B I
*CAP
1 inst_7:Z 0.0392