*SPEF "IEEE 1481-1998"
*DESIGN "changes"
*DATE "Tue Dec 02 19:00:23 2014"
*VENDOR "TAU 2015 Contest"
*PROGRAM "Benchmark Parasitic Generator"
*VERSION "0.0"
*DESIGN_FLOW "NETLIST_TYPE_VERILOG"
*DIVIDER /
*DELIMITER :
*BUS_DELIMITER [ ]
*T_UNIT 1 PS
*C_UNIT 1 FF
*R_UNIT 1 KOHM
*L_UNIT 1 UH

*D_NET TAUNET_13 1.7439
*CONN
*I inst_87:ZN O
*I TAUGATE_13:A I
*CAP
1 inst_87:ZN 0.2611
2 TAUNET_13:1 0.4098
3 TAUNET_13:2 0.5009
4 TAUNET_13:3 0.2843
5 TAUGATE_13:A 0.2878
*RES
2 inst_87:ZN TAUNET_13:1 0.1659
3 TAUNET_13:1 TAUNET_13:2 0.2742
4 TAUNET_13:2 TAUNET_13:3 0.3494
5 TAUNET_13:3 TAUGATE_13:A 0.1485
*END

*D_NET TAUNET_12 1.3760
*CONN
*I inst_91:ZN O
*I TAUGATE_12:A I
*CAP
1 inst_91:ZN 0.2110
2 TAUNET_12:1 0.3070
3 TAUNET_12:2 0.3583
4 TAUNET_12:3 0.1395
5 TAUNET_12:4 0.0646
6 TAUNET_12:5 0.0794
7 TAUGATE_12:A 0.2161
*RES
2 inst_91:ZN TAUNET_12:1 0.1614
3 TAUNET_12:1 TAUNET_12:2 0.3312
4 TAUNET_12:2 TAUNET_12:3 0.3755
5 TAUNET_12:3 TAUNET_12:4 0.4644
6 TAUNET_12:4 TAUNET_12:5 0.4559
7 TAUNET_12:5 TAUGATE_12:A 0.4050
*END

*D_NET net_107 0.4849
*CONN
*I TAUGATE_43:Z O
*I inst_95:B I
*CAP
1 TAUGATE_43:Z 0.1670
2 net_107:1 0.2440
3 net_107:2 0.0332
4 inst_95:B 0.0406
*RES
2 TAUGATE_43:Z net_107:1 0.2732
3 net_107:1 net_107:2 0.0073
4 net_107:2 inst_95:B 0.1308
*END

*D_NET net_116 5.5112
*CONN
*I TAUGATE_19:Z O
*I inst_150:A2 I
*I inst_153:A2 I
*I inst_151:A2 I
*I inst_156:A2 I
*CAP
1 TAUGATE_19:Z 0.2909
2 net_116:1 0.0740
3 net_116:2 0.4871
4 net_116:3 0.4951
5 net_116:4 0.4125
6 inst_153:A2 0.0565
7 net_116:5 0.4708
8 net_116:6 0.3056
9 net_116:7 0.3464
10 net_116:8 0.0305
11 inst_150:A2 0.2383
12 net_116:9 0.3833
13 net_116:10 0.3292
14 net_116:11 0.0716
15 net_116:12 0.2236
16 inst_151:A2 0.1922
17 net_116:13 0.2927
18 net_116:14 0.3943
19 net_116:15 0.2211
20 inst_156:A2 0.1955
*RES
2 TAUGATE_19:Z net_116:1 0.1285
3 net_116:1 net_116:2 0.0292
4 net_116:2 net_116:3 0.2926
5 net_116:3 net_116:4 0.4507
6 net_116:4 inst_153:A2 0.3356
7 net_116:4 net_116:5 0.4020
8 net_116:5 net_116:6 0.2529
9 net_116:6 net_116:7 0.2665
10 net_116:7 net_116:8 0.4354
11 net_116:8 inst_150:A2 0.1977
12 net_116:1 net_116:9 0.2805
13 net_116:9 net_116:10 0.1322
14 net_116:10 net_116:11 0.1905
15 net_116:11 net_116:12 0.4017
16 net_116:12 inst_151:A2 0.4680
17 net_116:8 net_116:13 0.1868
18 net_116:13 net_116:14 0.4889
19 net_116:14 net_116:15 0.0703
20 net_116:15 inst_156:A2 0.3298
*END

*D_NET net_137 1.4618
*CONN
*I TAUGATE_26:Z O
*I inst_92:B I
*CAP
1 TAUGATE_26:Z 0.3310
2 net_137:1 0.4792
3 net_137:2 0.1808
4 net_137:3 0.0717
5 inst_92:B 0.3990
*RES
2 TAUGATE_26:Z net_137:1 0.4035
3 net_137:1 net_137:2 0.0219
4 net_137:2 net_137:3 0.0830
5 net_137:3 inst_92:B 0.4539
*END

*D_NET net_132 2.1062
*CONN
*I TAUGATE_42:Z O
*I inst_74:B I
*CAP
1 TAUGATE_42:Z 0.3196
2 net_132:1 0.3591
3 net_132:2 0.2780
4 net_132:3 0.2022
5 net_132:4 0.1593
6 net_132:5 0.4382
7 inst_74:B 0.3498
*RES
2 TAUGATE_42:Z net_132:1 0.4055
3 net_132:1 net_132:2 0.4519
4 net_132:2 net_132:3 0.4658
5 net_132:3 net_132:4 0.3690
6 net_132:4 net_132:5 0.4019
7 net_132:5 inst_74:B 0.0632
*END

*D_NET nod3 2.0111
*CONN
*I TAUGATE_52:Z O
*P nod3 O
*CAP
1 TAUGATE_52:Z 0.4700
2 nod3:1 0.3545
3 nod3:2 0.1033
4 nod3:3 0.4316
5 nod3:4 0.1782
6 nod3 0.4734
*RES
2 TAUGATE_52:Z nod3:1 0.0376
3 nod3:1 nod3:2 0.0972
4 nod3:2 nod3:3 0.3594
5 nod3:3 nod3:4 0.0525
6 nod3:4 nod3 0.3248
*END

*D_NET nod21 1.7532
*CONN
*I TAUGATE_12:Z O
*P nod21 O
*CAP
1 TAUGATE_12:Z 0.1267
2 nod21:1 0.2434
3 nod21:2 0.3726
4 nod21:3 0.2980
5 nod21:4 0.2454
6 nod21 0.4670
*RES
2 TAUGATE_12:Z nod21:1 0.1921
3 nod21:1 nod21:2 0.1376
4 nod21:2 nod21:3 0.4443
5 nod21:3 nod21:4 0.1288
6 nod21:4 nod21 0.3022
*END

*D_NET TAUNET_35 1.8873
*CONN
*I inst_33:ZN O
*I TAUGATE_35:A I
*CAP
1 inst_33:ZN 0.0668
2 TAUNET_35:1 0.4131
3 TAUNET_35:2 0.4004
4 TAUNET_35:3 0.4814
5 TAUNET_35:4 0.1341
6 TAUGATE_35:A 0.3915
*RES
2 inst_33:ZN TAUNET_35:1 0.0282
3 TAUNET_35:1 TAUNET_35:2 0.3089
4 TAUNET_35:2 TAUNET_35:3 0.0253
5 TAUNET_35:3 TAUNET_35:4 0.3105
6 TAUNET_35:4 TAUGATE_35:A 0.1881
*END

*D_NET nid13 2.8280
*CONN
*I TAUGATE_23:Z O
*I inst_100:A I
*I inst_11:B I
*I inst_14:A I
*CAP
1 TAUGATE_23:Z 0.1592
2 nid13:1 0.2761
3 nid13:2 0.3643
4 nid13:3 0.2288
5 nid13:4 0.0666
6 inst_11:B 0.3854
7 nid13:5 0.4921
8 nid13:6 0.1648
9 nid13:7 0.1855
10 inst_100:A 0.0112
11 nid13:8 0.3290
12 nid13:9 0.1620
13 inst_14:A 0.0029
*RES
2 TAUGATE_23:Z nid13:1 0.3580
3 nid13:1 nid13:2 0.3774
4 nid13:2 nid13:3 0.2731
5 nid13:3 nid13:4 0.1525
6 nid13:4 inst_11:B 0.0518
7 nid13:3 nid13:5 0.3530
8 nid13:5 nid13:6 0.1128
9 nid13:6 nid13:7 0.2239
10 nid13:7 inst_100:A 0.0917
11 nid13:7 nid13:8 0.2883
12 nid13:8 nid13:9 0.1903
13 nid13:9 inst_14:A 0.4381
*END

*D_NET net_140 0.3519
*CONN
*I TAUGATE_24:Z O
*I inst_102:B I
*CAP
1 TAUGATE_24:Z 0.0801
2 net_140:1 0.1891
3 net_140:2 0.0464
4 inst_102:B 0.0364
*RES
2 TAUGATE_24:Z net_140:1 0.0279
3 net_140:1 net_140:2 0.4104
4 net_140:2 inst_102:B 0.0649
*END

*D_NET net_118 1.2069
*CONN
*I TAUGATE_18:Z O
*I inst_87:B I
*CAP
1 TAUGATE_18:Z 0.1600
2 net_118:1 0.4787
3 net_118:2 0.1076
4 inst_87:B 0.4606
*RES
2 TAUGATE_18:Z net_118:1 0.3388
3 net_118:1 net_118:2 0.4657
4 net_118:2 inst_87:B 0.3595
*END

*D_NET net_119 0.4962
*CONN
*I TAUGATE_32:Z O
*I inst_97:B I
*CAP
1 TAUGATE_32:Z 0.0832
2 net_119:1 0.3736
3 inst_97:B 0.0395
*RES
2 TAUGATE_32:Z net_119:1 0.3644
3 net_119:1 inst_97:B 0.0829
*END

*D_NET net_23 2.2654
*CONN
*I TAUGATE_59:Z O
*I inst_44:B I
*CAP
1 TAUGATE_59:Z 0.4694
2 net_23:1 0.3882
3 net_23:2 0.4950
4 net_23:3 0.0413
5 net_23:4 0.4651
6 inst_44:B 0.4065
*RES
2 TAUGATE_59:Z net_23:1 0.3164
3 net_23:1 net_23:2 0.3513
4 net_23:2 net_23:3 0.1165
5 net_23:3 net_23:4 0.0986
6 net_23:4 inst_44:B 0.2243
*END

*D_NET TAUNET_46 1.4701
*CONN
*I inst_80:ZN O
*I TAUGATE_46:A I
*CAP
1 inst_80:ZN 0.4269
2 TAUNET_46:1 0.2195
3 TAUNET_46:2 0.1533
4 TAUNET_46:3 0.4091
5 TAUGATE_46:A 0.2613
*RES
2 inst_80:ZN TAUNET_46:1 0.3587
3 TAUNET_46:1 TAUNET_46:2 0.1869
4 TAUNET_46:2 TAUNET_46:3 0.4974
5 TAUNET_46:3 TAUGATE_46:A 0.3047
*END

*D_NET TAUNET_24 0.7999
*CONN
*I inst_166:ZN O
*I TAUGATE_24:A I
*CAP
1 inst_166:ZN 0.4969
2 TAUNET_24:1 0.1733
3 TAUNET_24:2 0.1014
4 TAUGATE_24:A 0.0283
*RES
2 inst_166:ZN TAUNET_24:1 0.2763
3 TAUNET_24:1 TAUNET_24:2 0.2945
4 TAUNET_24:2 TAUGATE_24:A 0.3177
*END

*D_NET net_122 6.3049
*CONN
*I TAUGATE_10:Z O
*I inst_148:A1 I
*I inst_175:A I
*I inst_107:A2 I
*I inst_165:A1 I
*I inst_156:A1 I
*I inst_154:A1 I
*CAP
1 TAUGATE_10:Z 0.3390
2 net_122:1 0.3404
3 net_122:2 0.1317
4 net_122:3 0.3617
5 inst_107:A2 0.0856
6 net_122:4 0.3735
7 net_122:5 0.1079
8 net_122:6 0.3323
9 inst_175:A 0.2907
10 net_122:7 0.2773
11 inst_148:A1 0.0903
12 net_122:8 0.3114
13 net_122:9 0.3090
14 inst_165:A1 0.3972
15 net_122:10 0.2588
16 net_122:11 0.4474
17 net_122:12 0.3528
18 inst_156:A1 0.0472
19 net_122:13 0.2490
20 net_122:14 0.0579
21 net_122:15 0.0423
22 net_122:16 0.2861
23 net_122:17 0.4278
24 inst_154:A1 0.3875
*RES
2 TAUGATE_10:Z net_122:1 0.3629
3 net_122:1 net_122:2 0.2821
4 net_122:2 net_122:3 0.3900
5 net_122:3 inst_107:A2 0.0557
6 net_122:1 net_122:4 0.0362
7 net_122:4 net_122:5 0.4966
8 net_122:5 net_122:6 0.4101
9 net_122:6 inst_175:A 0.2702
10 net_122:3 net_122:7 0.0485
11 net_122:7 inst_148:A1 0.4602
12 net_122:7 net_122:8 0.4228
13 net_122:8 net_122:9 0.2443
14 net_122:9 inst_165:A1 0.2458
15 net_122:3 net_122:10 0.4436
16 net_122:10 net_122:11 0.1981
17 net_122:11 net_122:12 0.3275
18 net_122:12 inst_156:A1 0.0169
19 net_122:10 net_122:13 0.4796
20 net_122:13 net_122:14 0.3740
21 net_122:14 net_122:15 0.1554
22 net_122:15 net_122:16 0.0209
23 net_122:16 net_122:17 0.4380
24 net_122:17 inst_154:A1 0.4130
*END

*D_NET TAUNET_16 1.3601
*CONN
*I inst_128:ZN O
*I TAUGATE_16:A I
*CAP
1 inst_128:ZN 0.2134
2 TAUNET_16:1 0.4947
3 TAUNET_16:2 0.3666
4 TAUGATE_16:A 0.2854
*RES
2 inst_128:ZN TAUNET_16:1 0.4464
3 TAUNET_16:1 TAUNET_16:2 0.2438
4 TAUNET_16:2 TAUGATE_16:A 0.2969
*END

*D_NET TAUNET_31 1.6441
*CONN
*I inst_106:ZN O
*I TAUGATE_31:A I
*CAP
1 inst_106:ZN 0.5006
2 TAUNET_31:1 0.3973
3 TAUNET_31:2 0.2044
4 TAUNET_31:3 0.1531
5 TAUGATE_31:A 0.3886
*RES
2 inst_106:ZN TAUNET_31:1 0.2618
3 TAUNET_31:1 TAUNET_31:2 0.2468
4 TAUNET_31:2 TAUNET_31:3 0.4002
5 TAUNET_31:3 TAUGATE_31:A 0.3652
*END

*D_NET TAUNET_25 0.7662
*CONN
*P nid7 I
*I TAUGATE_25:A I
*CAP
1 nid7 0.0562
2 TAUNET_25:1 0.4386
3 TAUGATE_25:A 0.2715
*RES
2 nid7 TAUNET_25:1 0.0199
3 TAUNET_25:1 TAUGATE_25:A 0.4145
*END

*D_NET TAUNET_27 0.4376
*CONN
*I inst_77:ZN O
*I TAUGATE_27:A I
*CAP
1 inst_77:ZN 0.1130
2 TAUNET_27:1 0.1939
3 TAUNET_27:2 0.1095
4 TAUGATE_27:A 0.0212
*RES
2 inst_77:ZN TAUNET_27:1 0.1417
3 TAUNET_27:1 TAUNET_27:2 0.2190
4 TAUNET_27:2 TAUGATE_27:A 0.4826
*END

*D_NET nic3 1.4876
*CONN
*I TAUGATE_38:Z O
*I inst_126:A1 I
*CAP
1 TAUGATE_38:Z 0.4033
2 nic3:1 0.2540
3 nic3:2 0.0526
4 nic3:3 0.2388
5 nic3:4 0.1787
6 inst_126:A1 0.3603
*RES
2 TAUGATE_38:Z nic3:1 0.0603
3 nic3:1 nic3:2 0.0863
4 nic3:2 nic3:3 0.3102
5 nic3:3 nic3:4 0.1239
6 nic3:4 inst_126:A1 0.2473
*END

*D_NET net_130 1.8437
*CONN
*I TAUGATE_20:Z O
*I inst_90:B I
*CAP
1 TAUGATE_20:Z 0.4935
2 net_130:1 0.3995
3 net_130:2 0.4441
4 net_130:3 0.4218
5 inst_90:B 0.0848
*RES
2 TAUGATE_20:Z net_130:1 0.0266
3 net_130:1 net_130:2 0.0274
4 net_130:2 net_130:3 0.4218
5 net_130:3 inst_90:B 0.2061
*END

*D_NET TAUNET_28 1.6754
*CONN
*P nid11 I
*I TAUGATE_28:A I
*CAP
1 nid11 0.4583
2 TAUNET_28:1 0.0145
3 TAUNET_28:2 0.0725
4 TAUNET_28:3 0.4492
5 TAUNET_28:4 0.3124
6 TAUGATE_28:A 0.3685
*RES
2 nid11 TAUNET_28:1 0.4317
3 TAUNET_28:1 TAUNET_28:2 0.1801
4 TAUNET_28:2 TAUNET_28:3 0.2826
5 TAUNET_28:3 TAUNET_28:4 0.3420
6 TAUNET_28:4 TAUGATE_28:A 0.0965
*END

*D_NET TAUNET_57 1.1961
*CONN
*I inst_67:ZN O
*I TAUGATE_57:A I
*CAP
1 inst_67:ZN 0.1304
2 TAUNET_57:1 0.4634
3 TAUNET_57:2 0.2869
4 TAUNET_57:3 0.1646
5 TAUNET_57:4 0.1182
6 TAUGATE_57:A 0.0327
*RES
2 inst_67:ZN TAUNET_57:1 0.0608
3 TAUNET_57:1 TAUNET_57:2 0.3721
4 TAUNET_57:2 TAUNET_57:3 0.4648
5 TAUNET_57:3 TAUNET_57:4 0.2376
6 TAUNET_57:4 TAUGATE_57:A 0.1146
*END

*D_NET nod6 0.6447
*CONN
*I TAUGATE_27:Z O
*P nod6 O
*CAP
1 TAUGATE_27:Z 0.1439
2 nod6:1 0.2502
3 nod6 0.2506
*RES
2 TAUGATE_27:Z nod6:1 0.4486
3 nod6:1 nod6 0.0641
*END

*D_NET net_5 0.3299
*CONN
*I TAUGATE_16:Z O
*I inst_63:B I
*CAP
1 TAUGATE_16:Z 0.0079
2 net_5:1 0.2219
3 inst_63:B 0.1001
*RES
2 TAUGATE_16:Z net_5:1 0.2747
3 net_5:1 inst_63:B 0.1704
*END

*D_NET TAUNET_9 0.1666
*CONN
*I TAUGATE_39:Z O
*I TAUGATE_9:A I
*CAP
1 TAUGATE_39:Z 0.0121
2 TAUNET_9:1 0.0267
3 TAUGATE_9:A 0.1278
*RES
2 TAUGATE_39:Z TAUNET_9:1 0.1079
3 TAUNET_9:1 TAUGATE_9:A 0.3621
*END

*D_NET net_14 2.0149
*CONN
*I TAUGATE_44:Z O
*I inst_46:A I
*CAP
1 TAUGATE_44:Z 0.3490
2 net_14:1 0.3195
3 net_14:2 0.4748
4 net_14:3 0.2505
5 net_14:4 0.2036
6 net_14:5 0.3990
7 inst_46:A 0.0185
*RES
2 TAUGATE_44:Z net_14:1 0.3777
3 net_14:1 net_14:2 0.2437
4 net_14:2 net_14:3 0.3641
5 net_14:3 net_14:4 0.1411
6 net_14:4 net_14:5 0.2452
7 net_14:5 inst_46:A 0.2723
*END

*D_NET TAUNET_37 0.3445
*CONN
*I inst_60:ZN O
*I TAUGATE_37:A I
*CAP
1 inst_60:ZN 0.2449
2 TAUNET_37:1 0.0917
3 TAUGATE_37:A 0.0078
*RES
2 inst_60:ZN TAUNET_37:1 0.0227
3 TAUNET_37:1 TAUGATE_37:A 0.0264
*END

*D_NET TAUNET_32 0.9773
*CONN
*I inst_154:ZN O
*I TAUGATE_32:A I
*CAP
1 inst_154:ZN 0.1906
2 TAUNET_32:1 0.0937
3 TAUNET_32:2 0.2944
4 TAUGATE_32:A 0.3987
*RES
2 inst_154:ZN TAUNET_32:1 0.0209
3 TAUNET_32:1 TAUNET_32:2 0.1182
4 TAUNET_32:2 TAUGATE_32:A 0.1067
*END

*D_NET TAUNET_38 2.0282
*CONN
*P nic3 I
*I TAUGATE_38:A I
*CAP
1 nic3 0.3672
2 TAUNET_38:1 0.1157
3 TAUNET_38:2 0.1901
4 TAUNET_38:3 0.2138
5 TAUNET_38:4 0.5008
6 TAUNET_38:5 0.2979
7 TAUGATE_38:A 0.3428
*RES
2 nic3 TAUNET_38:1 0.2325
3 TAUNET_38:1 TAUNET_38:2 0.2733
4 TAUNET_38:2 TAUNET_38:3 0.1266
5 TAUNET_38:3 TAUNET_38:4 0.3814
6 TAUNET_38:4 TAUNET_38:5 0.1363
7 TAUNET_38:5 TAUGATE_38:A 0.3277
*END

*D_NET nid7 2.2923
*CONN
*I TAUGATE_25:Z O
*I inst_76:A I
*I inst_8:A I
*I inst_29:A I
*CAP
1 TAUGATE_25:Z 0.4503
2 nid7:1 0.1603
3 nid7:2 0.4423
4 nid7:3 0.1159
5 nid7:4 0.4527
6 inst_8:A 0.1465
7 nid7:5 0.1546
8 inst_76:A 0.1861
9 nid7:6 0.1222
10 inst_29:A 0.0613
*RES
2 TAUGATE_25:Z nid7:1 0.1463
3 nid7:1 nid7:2 0.4621
4 nid7:2 nid7:3 0.4065
5 nid7:3 nid7:4 0.0227
6 nid7:4 inst_8:A 0.2236
7 nid7:4 nid7:5 0.4367
8 nid7:5 inst_76:A 0.3452
9 nid7:1 nid7:6 0.1692
10 nid7:6 inst_29:A 0.4407
*END

*D_NET TAUNET_40 1.3881
*CONN
*I inst_51:ZN O
*I TAUGATE_40:A I
*CAP
1 inst_51:ZN 0.2563
2 TAUNET_40:1 0.2603
3 TAUNET_40:2 0.2874
4 TAUNET_40:3 0.3072
5 TAUGATE_40:A 0.2768
*RES
2 inst_51:ZN TAUNET_40:1 0.1679
3 TAUNET_40:1 TAUNET_40:2 0.2053
4 TAUNET_40:2 TAUNET_40:3 0.2140
5 TAUNET_40:3 TAUGATE_40:A 0.3306
*END

*D_NET TAUNET_20 2.0736
*CONN
*I inst_161:ZN O
*I TAUGATE_20:A I
*CAP
1 inst_161:ZN 0.2580
2 TAUNET_20:1 0.4796
3 TAUNET_20:2 0.3806
4 TAUNET_20:3 0.4946
5 TAUGATE_20:A 0.4608
*RES
2 inst_161:ZN TAUNET_20:1 0.4692
3 TAUNET_20:1 TAUNET_20:2 0.4766
4 TAUNET_20:2 TAUNET_20:3 0.0589
5 TAUNET_20:3 TAUGATE_20:A 0.0962
*END

*D_NET net_40 1.3235
*CONN
*I TAUGATE_35:Z O
*I inst_69:A I
*CAP
1 TAUGATE_35:Z 0.1750
2 net_40:1 0.0845
3 net_40:2 0.1888
4 net_40:3 0.1436
5 net_40:4 0.1762
6 net_40:5 0.4748
7 inst_69:A 0.0806
*RES
2 TAUGATE_35:Z net_40:1 0.0407
3 net_40:1 net_40:2 0.2069
4 net_40:2 net_40:3 0.0491
5 net_40:3 net_40:4 0.4137
6 net_40:4 net_40:5 0.3046
7 net_40:5 inst_69:A 0.2987
*END

*D_NET net_11 1.6284
*CONN
*I TAUGATE_50:Z O
*I inst_35:B I
*CAP
1 TAUGATE_50:Z 0.1831
2 net_11:1 0.0191
3 net_11:2 0.3538
4 net_11:3 0.4300
5 net_11:4 0.3629
6 net_11:5 0.0787
7 inst_35:B 0.2007
*RES
2 TAUGATE_50:Z net_11:1 0.2971
3 net_11:1 net_11:2 0.4025
4 net_11:2 net_11:3 0.5010
5 net_11:3 net_11:4 0.3538
6 net_11:4 net_11:5 0.4649
7 net_11:5 inst_35:B 0.0482
*END

*D_NET TAUNET_14 1.9070
*CONN
*I inst_64:ZN O
*I TAUGATE_14:A I
*CAP
1 inst_64:ZN 0.2963
2 TAUNET_14:1 0.2002
3 TAUNET_14:2 0.2573
4 TAUNET_14:3 0.3761
5 TAUNET_14:4 0.0616
6 TAUNET_14:5 0.4298
7 TAUGATE_14:A 0.2857
*RES
2 inst_64:ZN TAUNET_14:1 0.2634
3 TAUNET_14:1 TAUNET_14:2 0.0470
4 TAUNET_14:2 TAUNET_14:3 0.0745
5 TAUNET_14:3 TAUNET_14:4 0.1738
6 TAUNET_14:4 TAUNET_14:5 0.4336
7 TAUNET_14:5 TAUGATE_14:A 0.4556
*END

*D_NET net_124 3.7871
*CONN
*I TAUGATE_45:Z O
*I inst_167:A2 I
*I inst_157:A2 I
*I inst_144:A2 I
*I inst_149:A2 I
*CAP
1 TAUGATE_45:Z 0.0036
2 net_124:1 0.2737
3 net_124:2 0.3095
4 inst_157:A2 0.4895
5 net_124:3 0.3671
6 inst_167:A2 0.3815
7 net_124:4 0.1379
8 net_124:5 0.1139
9 net_124:6 0.0489
10 net_124:7 0.0861
11 net_124:8 0.1477
12 inst_144:A2 0.4806
13 net_124:9 0.4236
14 net_124:10 0.3328
15 inst_149:A2 0.1906
*RES
2 TAUGATE_45:Z net_124:1 0.4033
3 net_124:1 net_124:2 0.2734
4 net_124:2 inst_157:A2 0.3461
5 net_124:2 net_124:3 0.1458
6 net_124:3 inst_167:A2 0.4915
7 net_124:2 net_124:4 0.3473
8 net_124:4 net_124:5 0.1114
9 net_124:5 net_124:6 0.0198
10 net_124:6 net_124:7 0.2366
11 net_124:7 net_124:8 0.1100
12 net_124:8 inst_144:A2 0.2818
13 net_124:5 net_124:9 0.5003
14 net_124:9 net_124:10 0.4347
15 net_124:10 inst_149:A2 0.3044
*END

*D_NET net_131 6.1605
*CONN
*I TAUGATE_33:Z O
*I inst_162:A1 I
*I inst_164:A1 I
*I inst_142:A1 I
*I inst_132:A1 I
*I inst_109:A2 I
*I inst_106:A1 I
*I inst_149:A1 I
*CAP
1 TAUGATE_33:Z 0.0096
2 net_131:1 0.2377
3 net_131:2 0.2571
4 net_131:3 0.3610
5 net_131:4 0.0042
6 net_131:5 0.2690
7 inst_164:A1 0.3841
8 net_131:6 0.0621
9 net_131:7 0.2122
10 net_131:8 0.2034
11 net_131:9 0.1253
12 net_131:10 0.2112
13 inst_162:A1 0.2343
14 net_131:11 0.0383
15 inst_142:A1 0.2939
16 net_131:12 0.2308
17 net_131:13 0.1825
18 net_131:14 0.4154
19 net_131:15 0.4205
20 inst_132:A1 0.1921
21 net_131:16 0.3586
22 inst_109:A2 0.1804
23 net_131:17 0.2910
24 inst_106:A1 0.3418
25 net_131:18 0.4916
26 net_131:19 0.0258
27 net_131:20 0.0722
28 net_131:21 0.0268
29 inst_149:A1 0.0274
*RES
2 TAUGATE_33:Z net_131:1 0.3400
3 net_131:1 net_131:2 0.2352
4 net_131:2 net_131:3 0.3112
5 net_131:3 net_131:4 0.1345
6 net_131:4 net_131:5 0.4134
7 net_131:5 inst_164:A1 0.0741
8 net_131:5 net_131:6 0.1106
9 net_131:6 net_131:7 0.0283
10 net_131:7 net_131:8 0.2644
11 net_131:8 net_131:9 0.3395
12 net_131:9 net_131:10 0.4160
13 net_131:10 inst_162:A1 0.1311
14 net_131:4 net_131:11 0.2177
15 net_131:11 inst_142:A1 0.0520
16 net_131:5 net_131:12 0.3303
17 net_131:12 net_131:13 0.0500
18 net_131:13 net_131:14 0.3450
19 net_131:14 net_131:15 0.2552
20 net_131:15 inst_132:A1 0.2397
21 net_131:12 net_131:16 0.2132
22 net_131:16 inst_109:A2 0.3448
23 net_131:10 net_131:17 0.0277
24 net_131:17 inst_106:A1 0.2232
25 net_131:3 net_131:18 0.0955
26 net_131:18 net_131:19 0.0758
27 net_131:19 net_131:20 0.0730
28 net_131:20 net_131:21 0.2996
29 net_131:21 inst_149:A1 0.1500
*END

*D_NET TAUNET_49 1.1459
*CONN
*I inst_109:ZN O
*I TAUGATE_49:A I
*CAP
1 inst_109:ZN 0.0605
2 TAUNET_49:1 0.4347
3 TAUNET_49:2 0.2976
4 TAUGATE_49:A 0.3531
*RES
2 inst_109:ZN TAUNET_49:1 0.0316
3 TAUNET_49:1 TAUNET_49:2 0.1823
4 TAUNET_49:2 TAUGATE_49:A 0.0755
*END

*D_NET net_68 1.1637
*CONN
*I TAUGATE_37:Z O
*I inst_66:B I
*CAP
1 TAUGATE_37:Z 0.3515
2 net_68:1 0.4269
3 net_68:2 0.0493
4 net_68:3 0.0341
5 inst_66:B 0.3020
*RES
2 TAUGATE_37:Z net_68:1 0.3389
3 net_68:1 net_68:2 0.4000
4 net_68:2 net_68:3 0.0188
5 net_68:3 inst_66:B 0.4709
*END

*D_NET nod27 0.8262
*CONN
*I TAUGATE_21:Z O
*P nod27 O
*CAP
1 TAUGATE_21:Z 0.0122
2 nod27:1 0.0936
3 nod27:2 0.3051
4 nod27:3 0.1197
5 nod27 0.2956
*RES
2 TAUGATE_21:Z nod27:1 0.2210
3 nod27:1 nod27:2 0.0970
4 nod27:2 nod27:3 0.2798
5 nod27:3 nod27 0.3150
*END

*D_NET net_142 1.2664
*CONN
*I TAUGATE_51:Z O
*I inst_93:B I
*CAP
1 TAUGATE_51:Z 0.2108
2 net_142:1 0.0161
3 net_142:2 0.2047
4 net_142:3 0.3729
5 net_142:4 0.0610
6 inst_93:B 0.4010
*RES
2 TAUGATE_51:Z net_142:1 0.2910
3 net_142:1 net_142:2 0.3768
4 net_142:2 net_142:3 0.3083
5 net_142:3 net_142:4 0.1250
6 net_142:4 inst_93:B 0.3526
*END

*D_NET TAUNET_50 1.6292
*CONN
*I inst_2:Z O
*I TAUGATE_50:A I
*CAP
1 inst_2:Z 0.3144
2 TAUNET_50:1 0.0820
3 TAUNET_50:2 0.2174
4 TAUNET_50:3 0.3638
5 TAUNET_50:4 0.4097
6 TAUGATE_50:A 0.2418
*RES
2 inst_2:Z TAUNET_50:1 0.4080
3 TAUNET_50:1 TAUNET_50:2 0.3118
4 TAUNET_50:2 TAUNET_50:3 0.4981
5 TAUNET_50:3 TAUNET_50:4 0.3134
6 TAUNET_50:4 TAUGATE_50:A 0.4059
*END

*D_NET net_31 0.9494
*CONN
*I TAUGATE_56:Z O
*I inst_37:A I
*CAP
1 TAUGATE_56:Z 0.0910
2 net_31:1 0.3093
3 net_31:2 0.3342
4 inst_37:A 0.2150
*RES
2 TAUGATE_56:Z net_31:1 0.0109
3 net_31:1 net_31:2 0.1830
4 net_31:2 inst_37:A 0.2298
*END

*D_NET TAUNET_23 0.1587
*CONN
*P nid13 I
*I TAUGATE_23:A I
*CAP
1 nid13 0.0044
2 TAUNET_23:1 0.0476
3 TAUNET_23:2 0.0521
4 TAUGATE_23:A 0.0546
*RES
2 nid13 TAUNET_23:1 0.0043
3 TAUNET_23:1 TAUNET_23:2 0.2737
4 TAUNET_23:2 TAUGATE_23:A 0.4724
*END

*D_NET TAUNET_39 1.0994
*CONN
*I inst_43:ZN O
*I TAUGATE_39:A I
*CAP
1 inst_43:ZN 0.2426
2 TAUNET_39:1 0.2784
3 TAUNET_39:2 0.2008
4 TAUGATE_39:A 0.3776
*RES
2 inst_43:ZN TAUNET_39:1 0.2937
3 TAUNET_39:1 TAUNET_39:2 0.0093
4 TAUNET_39:2 TAUGATE_39:A 0.2822
*END

*D_NET net_49 1.9213
*CONN
*I TAUGATE_55:Z O
*I inst_48:A I
*I inst_50:A I
*CAP
1 TAUGATE_55:Z 0.0309
2 net_49:1 0.3809
3 net_49:2 0.3567
4 inst_50:A 0.3242
5 net_49:3 0.2185
6 net_49:4 0.2266
7 net_49:5 0.2538
8 inst_48:A 0.1297
*RES
2 TAUGATE_55:Z net_49:1 0.2336
3 net_49:1 net_49:2 0.3863
4 net_49:2 inst_50:A 0.2365
5 net_49:2 net_49:3 0.4791
6 net_49:3 net_49:4 0.2417
7 net_49:4 net_49:5 0.2444
8 net_49:5 inst_48:A 0.4262
*END

*D_NET net_95 2.5531
*CONN
*I TAUGATE_49:Z O
*I inst_134:A2 I
*I inst_115:A1 I
*I inst_116:A1 I
*CAP
1 TAUGATE_49:Z 0.3015
2 net_95:1 0.3035
3 net_95:2 0.4053
4 inst_116:A1 0.0863
5 net_95:3 0.3711
6 net_95:4 0.0512
7 inst_115:A1 0.1351
8 net_95:5 0.1146
9 net_95:6 0.3234
10 inst_134:A2 0.4610
*RES
2 TAUGATE_49:Z net_95:1 0.2362
3 net_95:1 net_95:2 0.1365
4 net_95:2 inst_116:A1 0.0277
5 net_95:2 net_95:3 0.0984
6 net_95:3 net_95:4 0.0368
7 net_95:4 inst_115:A1 0.4376
8 net_95:1 net_95:5 0.4832
9 net_95:5 net_95:6 0.2776
10 net_95:6 inst_134:A2 0.3781
*END

*D_NET TAUNET_51 1.1921
*CONN
*I inst_168:ZN O
*I TAUGATE_51:A I
*CAP
1 inst_168:ZN 0.0185
2 TAUNET_51:1 0.1588
3 TAUNET_51:2 0.3738
4 TAUNET_51:3 0.4556
5 TAUNET_51:4 0.1835
6 TAUGATE_51:A 0.0020
*RES
2 inst_168:ZN TAUNET_51:1 0.2614
3 TAUNET_51:1 TAUNET_51:2 0.3010
4 TAUNET_51:2 TAUNET_51:3 0.2164
5 TAUNET_51:3 TAUNET_51:4 0.4372
6 TAUNET_51:4 TAUGATE_51:A 0.1158
*END

*D_NET net_78 1.1191
*CONN
*I TAUGATE_31:Z O
*I inst_135:A1 I
*CAP
1 TAUGATE_31:Z 0.3810
2 net_78:1 0.1662
3 net_78:2 0.3178
4 inst_135:A1 0.2541
*RES
2 TAUGATE_31:Z net_78:1 0.2497
3 net_78:1 net_78:2 0.4625
4 net_78:2 inst_135:A1 0.2343
*END

*D_NET net_15 1.0962
*CONN
*I TAUGATE_58:Z O
*I inst_43:A I
*CAP
1 TAUGATE_58:Z 0.3461
2 net_15:1 0.4109
3 net_15:2 0.0945
4 net_15:3 0.2326
5 inst_43:A 0.0121
*RES
2 TAUGATE_58:Z net_15:1 0.2674
3 net_15:1 net_15:2 0.2072
4 net_15:2 net_15:3 0.0414
5 net_15:3 inst_43:A 0.2455
*END

*D_NET nod31 1.7627
*CONN
*I TAUGATE_46:Z O
*P nod31 O
*CAP
1 TAUGATE_46:Z 0.0138
2 nod31:1 0.3131
3 nod31:2 0.4392
4 nod31:3 0.4048
5 nod31:4 0.0368
6 nod31:5 0.3283
7 nod31 0.2266
*RES
2 TAUGATE_46:Z nod31:1 0.4199
3 nod31:1 nod31:2 0.3736
4 nod31:2 nod31:3 0.3306
5 nod31:3 nod31:4 0.3042
6 nod31:4 nod31:5 0.1317
7 nod31:5 nod31 0.1481
*END

*D_NET net_57 1.0046
*CONN
*I TAUGATE_40:Z O
*I inst_58:A I
*CAP
1 TAUGATE_40:Z 0.2201
2 net_57:1 0.3013
3 net_57:2 0.0758
4 net_57:3 0.0262
5 inst_58:A 0.3812
*RES
2 TAUGATE_40:Z net_57:1 0.0656
3 net_57:1 net_57:2 0.1550
4 net_57:2 net_57:3 0.0047
5 net_57:3 inst_58:A 0.1418
*END

*D_NET TAUNET_19 1.5283
*CONN
*I inst_114:ZN O
*I TAUGATE_19:A I
*CAP
1 inst_114:ZN 0.3805
2 TAUNET_19:1 0.0497
3 TAUNET_19:2 0.4938
4 TAUNET_19:3 0.3913
5 TAUGATE_19:A 0.2131
*RES
2 inst_114:ZN TAUNET_19:1 0.3201
3 TAUNET_19:1 TAUNET_19:2 0.0320
4 TAUNET_19:2 TAUNET_19:3 0.2786
5 TAUNET_19:3 TAUGATE_19:A 0.3378
*END

*D_NET TAUNET_34 2.0655
*CONN
*I inst_38:ZN O
*I TAUGATE_34:A I
*CAP
1 inst_38:ZN 0.2454
2 TAUNET_34:1 0.2663
3 TAUNET_34:2 0.3641
4 TAUNET_34:3 0.1740
5 TAUNET_34:4 0.2701
6 TAUNET_34:5 0.3351
7 TAUGATE_34:A 0.4105
*RES
2 inst_38:ZN TAUNET_34:1 0.3004
3 TAUNET_34:1 TAUNET_34:2 0.3665
4 TAUNET_34:2 TAUNET_34:3 0.1341
5 TAUNET_34:3 TAUNET_34:4 0.0859
6 TAUNET_34:4 TAUNET_34:5 0.1706
7 TAUNET_34:5 TAUGATE_34:A 0.3812
*END

*D_NET TAUNET_54 0.4838
*CONN
*I inst_96:ZN O
*I TAUGATE_54:A I
*CAP
1 inst_96:ZN 0.1227
2 TAUNET_54:1 0.0059
3 TAUGATE_54:A 0.3552
*RES
2 inst_96:ZN TAUNET_54:1 0.3839
3 TAUNET_54:1 TAUGATE_54:A 0.1840
*END

*D_NET TAUNET_44 2.5126
*CONN
*I inst_5:Z O
*I TAUGATE_44:A I
*CAP
1 inst_5:Z 0.3573
2 TAUNET_44:1 0.3575
3 TAUNET_44:2 0.1715
4 TAUNET_44:3 0.3050
5 TAUNET_44:4 0.3594
6 TAUNET_44:5 0.4902
7 TAUGATE_44:A 0.4716
*RES
2 inst_5:Z TAUNET_44:1 0.2112
3 TAUNET_44:1 TAUNET_44:2 0.1762
4 TAUNET_44:2 TAUNET_44:3 0.1166
5 TAUNET_44:3 TAUNET_44:4 0.1660
6 TAUNET_44:4 TAUNET_44:5 0.2177
7 TAUNET_44:5 TAUGATE_44:A 0.2908
*END

*D_NET nid11 4.9259
*CONN
*I TAUGATE_28:Z O
*I inst_26:A I
*I inst_31:B I
*I inst_102:A I
*CAP
1 TAUGATE_28:Z 0.3308
2 nid11:1 0.4669
3 nid11:2 0.1932
4 nid11:3 0.0675
5 nid11:4 0.0053
6 nid11:5 0.1459
7 inst_31:B 0.0437
8 nid11:6 0.1669
9 nid11:7 0.4800
10 nid11:8 0.4518
11 nid11:9 0.0570
12 nid11:10 0.4909
13 inst_26:A 0.0572
14 nid11:11 0.4474
15 nid11:12 0.2931
16 nid11:13 0.2848
17 nid11:14 0.2246
18 nid11:15 0.3320
19 inst_102:A 0.3870
*RES
2 TAUGATE_28:Z nid11:1 0.4598
3 nid11:1 nid11:2 0.3838
4 nid11:2 nid11:3 0.2033
5 nid11:3 nid11:4 0.3263
6 nid11:4 nid11:5 0.4574
7 nid11:5 inst_31:B 0.4683
8 nid11:2 nid11:6 0.5008
9 nid11:6 nid11:7 0.1013
10 nid11:7 nid11:8 0.2457
11 nid11:8 nid11:9 0.4210
12 nid11:9 nid11:10 0.2594
13 nid11:10 inst_26:A 0.3565
14 nid11:9 nid11:11 0.3663
15 nid11:11 nid11:12 0.1512
16 nid11:12 nid11:13 0.1368
17 nid11:13 nid11:14 0.4493
18 nid11:14 nid11:15 0.4663
19 nid11:15 inst_102:A 0.2866
*END

*D_NET TAUNET_43 1.6286
*CONN
*I inst_147:ZN O
*I TAUGATE_43:A I
*CAP
1 inst_147:ZN 0.1599
2 TAUNET_43:1 0.4697
3 TAUNET_43:2 0.4844
4 TAUNET_43:3 0.0401
5 TAUNET_43:4 0.2861
6 TAUGATE_43:A 0.1883
*RES
2 inst_147:ZN TAUNET_43:1 0.3075
3 TAUNET_43:1 TAUNET_43:2 0.0604
4 TAUNET_43:2 TAUNET_43:3 0.3908
5 TAUNET_43:3 TAUNET_43:4 0.2921
6 TAUNET_43:4 TAUGATE_43:A 0.4162
*END

*D_NET TAUNET_56 1.0326
*CONN
*I inst_17:Z O
*I TAUGATE_56:A I
*CAP
1 inst_17:Z 0.0491
2 TAUNET_56:1 0.2111
3 TAUNET_56:2 0.3010
4 TAUNET_56:3 0.1515
5 TAUNET_56:4 0.0492
6 TAUGATE_56:A 0.2707
*RES
2 inst_17:Z TAUNET_56:1 0.0711
3 TAUNET_56:1 TAUNET_56:2 0.2365
4 TAUNET_56:2 TAUNET_56:3 0.0021
5 TAUNET_56:3 TAUNET_56:4 0.2080
6 TAUNET_56:4 TAUGATE_56:A 0.3529
*END

*D_NET TAUNET_55 1.9943
*CONN
*I inst_40:ZN O
*I TAUGATE_55:A I
*CAP
1 inst_40:ZN 0.3648
2 TAUNET_55:1 0.3187
3 TAUNET_55:2 0.4272
4 TAUNET_55:3 0.0224
5 TAUNET_55:4 0.4026
6 TAUNET_55:5 0.2784
7 TAUGATE_55:A 0.1803
*RES
2 inst_40:ZN TAUNET_55:1 0.0882
3 TAUNET_55:1 TAUNET_55:2 0.2924
4 TAUNET_55:2 TAUNET_55:3 0.4780
5 TAUNET_55:3 TAUNET_55:4 0.3510
6 TAUNET_55:4 TAUNET_55:5 0.1182
7 TAUNET_55:5 TAUGATE_55:A 0.2614
*END

*D_NET nod17 2.0123
*CONN
*I TAUGATE_54:Z O
*P nod17 O
*CAP
1 TAUGATE_54:Z 0.2582
2 nod17:1 0.0762
3 nod17:2 0.1986
4 nod17:3 0.3922
5 nod17:4 0.3950
6 nod17:5 0.2666
7 nod17 0.4255
*RES
2 TAUGATE_54:Z nod17:1 0.4671
3 nod17:1 nod17:2 0.2972
4 nod17:2 nod17:3 0.3936
5 nod17:3 nod17:4 0.4880
6 nod17:4 nod17:5 0.4169
7 nod17:5 nod17 0.3167
*END

*D_NET net_1 1.2435
*CONN
*I TAUGATE_15:Z O
*I inst_59:B I
*CAP
1 TAUGATE_15:Z 0.1073
2 net_1:1 0.1300
3 net_1:2 0.3795
4 net_1:3 0.2362
5 net_1:4 0.1908
6 inst_59:B 0.1996
*RES
2 TAUGATE_15:Z net_1:1 0.3123
3 net_1:1 net_1:2 0.1251
4 net_1:2 net_1:3 0.0048
5 net_1:3 net_1:4 0.3126
6 net_1:4 inst_59:B 0.0195
*END

*D_NET TAUNET_11 1.8169
*CONN
*I inst_88:ZN O
*I TAUGATE_11:A I
*CAP
1 inst_88:ZN 0.3700
2 TAUNET_11:1 0.3466
3 TAUNET_11:2 0.4948
4 TAUNET_11:3 0.4038
5 TAUNET_11:4 0.1954
6 TAUGATE_11:A 0.0063
*RES
2 inst_88:ZN TAUNET_11:1 0.4904
3 TAUNET_11:1 TAUNET_11:2 0.0915
4 TAUNET_11:2 TAUNET_11:3 0.4619
5 TAUNET_11:3 TAUNET_11:4 0.1065
6 TAUNET_11:4 TAUGATE_11:A 0.1990
*END

*D_NET TAUNET_33 0.5577
*CONN
*I inst_71:ZN O
*I TAUGATE_33:A I
*CAP
1 inst_71:ZN 0.0690
2 TAUNET_33:1 0.2934
3 TAUNET_33:2 0.0661
4 TAUNET_33:3 0.0281
5 TAUGATE_33:A 0.1011
*RES
2 inst_71:ZN TAUNET_33:1 0.2539
3 TAUNET_33:1 TAUNET_33:2 0.0765
4 TAUNET_33:2 TAUNET_33:3 0.1980
5 TAUNET_33:3 TAUGATE_33:A 0.3226
*END

*D_NET TAUNET_22 2.4686
*CONN
*I inst_158:ZN O
*I TAUGATE_22:A I
*CAP
1 inst_158:ZN 0.2766
2 TAUNET_22:1 0.4267
3 TAUNET_22:2 0.4596
4 TAUNET_22:3 0.3295
5 TAUNET_22:4 0.4724
6 TAUNET_22:5 0.4631
7 TAUGATE_22:A 0.0407
*RES
2 inst_158:ZN TAUNET_22:1 0.4130
3 TAUNET_22:1 TAUNET_22:2 0.3462
4 TAUNET_22:2 TAUNET_22:3 0.0714
5 TAUNET_22:3 TAUNET_22:4 0.2110
6 TAUNET_22:4 TAUNET_22:5 0.2588
7 TAUNET_22:5 TAUGATE_22:A 0.0339
*END

*D_NET TAUNET_41 0.9948
*CONN
*I inst_55:ZN O
*I TAUGATE_41:A I
*CAP
1 inst_55:ZN 0.4874
2 TAUNET_41:1 0.2489
3 TAUGATE_41:A 0.2584
*RES
2 inst_55:ZN TAUNET_41:1 0.0346
3 TAUNET_41:1 TAUGATE_41:A 0.4333
*END

*D_NET TAUNET_30 1.2318
*CONN
*I inst_20:Z O
*I TAUGATE_30:A I
*CAP
1 inst_20:Z 0.3416
2 TAUNET_30:1 0.1540
3 TAUNET_30:2 0.0325
4 TAUNET_30:3 0.0924
5 TAUNET_30:4 0.1850
6 TAUNET_30:5 0.1516
7 TAUGATE_30:A 0.2746
*RES
2 inst_20:Z TAUNET_30:1 0.4228
3 TAUNET_30:1 TAUNET_30:2 0.1417
4 TAUNET_30:2 TAUNET_30:3 0.3754
5 TAUNET_30:3 TAUNET_30:4 0.2016
6 TAUNET_30:4 TAUNET_30:5 0.0068
7 TAUNET_30:5 TAUGATE_30:A 0.2001
*END

*D_NET nod10 1.0932
*CONN
*I TAUGATE_53:Z O
*P nod10 O
*CAP
1 TAUGATE_53:Z 0.4926
2 nod10:1 0.3810
3 nod10 0.2195
*RES
2 TAUGATE_53:Z nod10:1 0.2042
3 nod10:1 nod10 0.2030
*END

*D_NET TAUNET_58 1.1297
*CONN
*I inst_6:Z O
*I TAUGATE_58:A I
*CAP
1 inst_6:Z 0.4413
2 TAUNET_58:1 0.4042
3 TAUNET_58:2 0.0451
4 TAUGATE_58:A 0.2391
*RES
2 inst_6:Z TAUNET_58:1 0.0321
3 TAUNET_58:1 TAUNET_58:2 0.4146
4 TAUNET_58:2 TAUGATE_58:A 0.0857
*END

*D_NET TAUNET_5 1.3928
*CONN
*I TAUGATE_57:Z O
*I TAUGATE_5:A I
*CAP
1 TAUGATE_57:Z 0.2245
2 TAUNET_5:1 0.0551
3 TAUNET_5:2 0.1877
4 TAUNET_5:3 0.0973
5 TAUNET_5:4 0.4235
6 TAUNET_5:5 0.1903
7 TAUGATE_5:A 0.2143
*RES
2 TAUGATE_57:Z TAUNET_5:1 0.0701
3 TAUNET_5:1 TAUNET_5:2 0.2421
4 TAUNET_5:2 TAUNET_5:3 0.4634
5 TAUNET_5:3 TAUNET_5:4 0.2497
6 TAUNET_5:4 TAUNET_5:5 0.2766
7 TAUNET_5:5 TAUGATE_5:A 0.3086
*END

*D_NET TAUNET_52 1.1823
*CONN
*I inst_82:ZN O
*I TAUGATE_52:A I
*CAP
1 inst_82:ZN 0.4838
2 TAUNET_52:1 0.3539
3 TAUGATE_52:A 0.3446
*RES
2 inst_82:ZN TAUNET_52:1 0.0192
3 TAUNET_52:1 TAUGATE_52:A 0.1341
*END

*D_NET TAUNET_59 1.7145
*CONN
*I inst_28:ZN O
*I TAUGATE_59:A I
*CAP
1 inst_28:ZN 0.3681
2 TAUNET_59:1 0.1561
3 TAUNET_59:2 0.1347
4 TAUNET_59:3 0.0224
5 TAUNET_59:4 0.3933
6 TAUNET_59:5 0.2244
7 TAUGATE_59:A 0.4154
*RES
2 inst_28:ZN TAUNET_59:1 0.1374
3 TAUNET_59:1 TAUNET_59:2 0.1713
4 TAUNET_59:2 TAUNET_59:3 0.2153
5 TAUNET_59:3 TAUNET_59:4 0.3119
6 TAUNET_59:4 TAUNET_59:5 0.4918
7 TAUNET_59:5 TAUGATE_59:A 0.3583
*END

*D_NET net_80 3.1949
*CONN
*I TAUGATE_14:Z O
*I inst_118:A2 I
*I inst_170:A I
*I inst_137:A1 I
*CAP
1 TAUGATE_14:Z 0.0071
2 net_80:1 0.4834
3 net_80:2 0.4589
4 net_80:3 0.0098
5 inst_118:A2 0.3264
6 net_80:4 0.4409
7 inst_170:A 0.4335
8 net_80:5 0.3155
9 net_80:6 0.4909
10 inst_137:A1 0.2285
*RES
2 TAUGATE_14:Z net_80:1 0.2846
3 net_80:1 net_80:2 0.4721
4 net_80:2 net_80:3 0.1185
5 net_80:3 inst_118:A2 0.4585
6 net_80:3 net_80:4 0.3158
7 net_80:4 inst_170:A 0.2513
8 net_80:2 net_80:5 0.2293
9 net_80:5 net_80:6 0.4514
10 net_80:6 inst_137:A1 0.1489
*END

*D_NET nod25 1.3305
*CONN
*I TAUGATE_13:Z O
*P nod25 O
*CAP
1 TAUGATE_13:Z 0.1815
2 nod25:1 0.3238
3 nod25:2 0.1536
4 nod25:3 0.2744
5 nod25 0.3973
*RES
2 TAUGATE_13:Z nod25:1 0.0682
3 nod25:1 nod25:2 0.0813
4 nod25:2 nod25:3 0.2235
5 nod25:3 nod25 0.0018
*END

*D_NET net_65 1.8273
*CONN
*I TAUGATE_36:Z O
*I inst_67:B I
*CAP
1 TAUGATE_36:Z 0.4580
2 net_65:1 0.4660
3 net_65:2 0.3296
4 net_65:3 0.2711
5 net_65:4 0.1177
6 net_65:5 0.1130
7 inst_67:B 0.0719
*RES
2 TAUGATE_36:Z net_65:1 0.2913
3 net_65:1 net_65:2 0.3837
4 net_65:2 net_65:3 0.4308