*SPEF "IEEE 1481-1998"
*DESIGN "c1908"
*DATE "Tue Nov 25 16:54:39 2014"
*VENDOR "TAU 2015 Contest"
*PROGRAM "Benchmark Parasitic Generator"
*VERSION "0.0"
*DESIGN_FLOW "NETLIST_TYPE_VERILOG"
*DIVIDER /
*DELIMITER :
*BUS_DELIMITER [ ]
*T_UNIT 1 PS
*C_UNIT 1 FF
*R_UNIT 1 KOHM
*L_UNIT 1 UH

*D_NET net_166 0.3673
*CONN
*I inst_181:ZN O
*I inst_95:A1 I
*I inst_96:A2 I
*CAP
1 inst_181:ZN 0.0166
2 inst_95:A1 0.0166
3 inst_96:A2 0.0166
4 net_166:1 0.0152
5 net_166:2 0.0639
6 net_166:3 0.0509
7 net_166:4 0.0152
8 net_166:5 0.0759
9 net_166:6 0.0759
10 net_166:7 0.0206
*RES
2 net_166:1 inst_96:A2 0.0050
3 net_166:2 net_166:1 0.0050
4 net_166:2 net_166:7 0.0014
5 net_166:3 net_166:2 0.0041
6 net_166:3 net_166:4 0.0050
7 net_166:4 inst_95:A1 0.0050
8 net_166:5 inst_181:ZN 0.0050
9 net_166:5 net_166:6 0.0050
10 net_166:7 net_166:6 0.0050
*END

*D_NET net_107 0.5381
*CONN
*I inst_218:ZN O
*I inst_172:A2 I
*I inst_144:A2 I
*CAP
1 inst_218:ZN 0.0228
2 inst_172:A2 0.0110
3 inst_144:A2 0.0166
4 net_107:1 0.0152
5 net_107:2 0.0142
6 net_107:3 0.0139
7 net_107:4 0.0237
8 net_107:5 0.1456
9 net_107:6 0.0291
10 net_107:7 0.0291
11 net_107:8 0.0193
12 net_107:9 0.0352
13 net_107:10 0.0166
14 net_107:11 0.0166
15 net_107:12 0.1291
*RES
2 inst_218:ZN net_107:9 0.0031
3 net_107:1 inst_144:A2 0.0050
4 net_107:2 net_107:1 0.0050
5 net_107:3 net_107:2 0.0010
6 net_107:3 net_107:4 0.0010
7 net_107:5 net_107:4 0.0027
8 net_107:5 net_107:6 0.0050
9 net_107:6 net_107:7 0.0025
10 net_107:7 net_107:8 0.0050
11 net_107:8 inst_172:A2 0.0021
12 net_107:10 net_107:9 0.0050
13 net_107:10 net_107:11 0.0010
14 net_107:12 net_107:5 0.0115
15 net_107:12 net_107:11 0.0050
*END

*D_NET net_47 0.2859
*CONN
*I inst_40:ZN O
*I inst_44:B I
*CAP
1 inst_40:ZN 0.0081
2 inst_44:B 0.0166
3 net_47:1 0.0206
4 net_47:2 0.0510
5 net_47:3 0.0533
6 net_47:4 0.0692
7 net_47:5 0.0670
*RES
2 inst_40:ZN net_47:1 0.0010
3 inst_44:B net_47:5 0.0050
4 net_47:2 net_47:1 0.0050
5 net_47:3 net_47:2 0.0040
6 net_47:3 net_47:4 0.0010
7 net_47:5 net_47:4 0.0090
*END

*D_NET net_179 0.8946
*CONN
*I inst_149:ZN O
*I inst_68:A I
*CAP
1 inst_149:ZN 0.0189
2 inst_68:A 0.0166
3 net_179:1 0.0314
4 net_179:2 0.0186
5 net_179:3 0.0186
6 net_179:4 0.3780
7 net_179:5 0.3780
8 net_179:6 0.0173
9 net_179:7 0.0173
*RES
2 inst_149:ZN net_179:1 0.0021
3 inst_68:A net_179:7 0.0050
4 net_179:2 net_179:1 0.0050
5 net_179:3 net_179:2 0.0010
6 net_179:4 net_179:3 0.0050
7 net_179:4 net_179:5 0.0319
8 net_179:6 net_179:5 0.0050
9 net_179:7 net_179:6 0.0010
*END

*D_NET net_176 0.2252
*CONN
*I inst_27:Z O
*I inst_64:B I
*CAP
1 inst_27:Z 0.0166
2 inst_64:B 0.0166
3 net_176:1 0.0152
4 net_176:2 0.0429
5 net_176:3 0.0429
6 net_176:4 0.0454
7 net_176:5 0.0454
*RES
2 inst_27:Z net_176:5 0.0050
3 net_176:1 inst_64:B 0.0050
4 net_176:2 net_176:1 0.0050
5 net_176:3 net_176:2 0.0034
6 net_176:4 net_176:3 0.0050
7 net_176:5 net_176:4 0.0035
*END

*D_NET net_159 0.7062
*CONN
*I inst_221:ZN O
*I inst_26:A I
*I inst_82:A2 I
*CAP
1 inst_221:ZN 0.0072
2 inst_26:A 0.0166
3 inst_82:A2 0.0166
4 net_159:1 0.0152
5 net_159:2 0.0325
6 net_159:3 0.2489
7 net_159:4 0.2278
8 net_159:5 0.0152
9 net_159:6 0.0196
10 net_159:7 0.0533
11 net_159:8 0.0533
*RES
2 net_159:1 inst_82:A2 0.0050
3 net_159:2 net_159:1 0.0050
4 net_159:2 net_159:3 0.0020
5 net_159:3 net_159:4 0.0197
6 net_159:4 net_159:5 0.0050
7 net_159:5 inst_26:A 0.0050
8 net_159:6 inst_221:ZN 0.0010
9 net_159:7 net_159:6 0.0050
10 net_159:8 net_159:3 0.0050
11 net_159:8 net_159:7 0.0035
*END

*D_NET net_61 1.1714
*CONN
*I inst_44:ZN O
*I inst_215:A2 I
*I inst_70:B I
*CAP
1 inst_44:ZN 0.0166
2 inst_215:A2 0.0166
3 inst_70:B 0.0166
4 net_61:1 0.0235
5 net_61:2 0.0351
6 net_61:3 0.0150
7 net_61:4 0.0150
8 net_61:5 0.0177
9 net_61:6 0.2037
10 net_61:7 0.2037
11 net_61:8 0.0441
12 net_61:9 0.0441
13 net_61:10 0.0778
14 net_61:11 0.0778
15 net_61:12 0.0540
16 net_61:13 0.0540
17 net_61:14 0.0299
18 net_61:15 0.0299
19 net_61:16 0.0885
20 net_61:17 0.0885
21 net_61:18 0.0192
*RES
2 net_61:1 inst_70:B 0.0050
3 net_61:2 net_61:1 0.0015
4 net_61:2 net_61:3 0.0050
5 net_61:4 net_61:3 0.0010
6 net_61:4 net_61:5 0.0050
7 net_61:5 net_61:6 0.0030
8 net_61:7 net_61:6 0.0071
9 net_61:7 net_61:8 0.0030
10 net_61:8 net_61:9 0.0010
11 net_61:9 net_61:10 0.0050
12 net_61:11 net_61:10 0.0063
13 net_61:11 net_61:12 0.0050
14 net_61:13 inst_215:A2 0.0050
15 net_61:13 net_61:12 0.0040
16 net_61:14 inst_44:ZN 0.0050
17 net_61:14 net_61:15 0.0020
18 net_61:16 net_61:15 0.0050
19 net_61:17 net_61:16 0.0122
20 net_61:18 net_61:2 0.0010
21 net_61:18 net_61:17 0.0050
*END

*D_NET net_137 0.1333
*CONN
*I inst_203:ZN O
*I inst_140:A3 I
*CAP
1 inst_203:ZN 0.0072
2 inst_140:A3 0.0166
3 net_137:1 0.0155
4 net_137:2 0.0489
5 net_137:3 0.0451
*RES
2 inst_203:ZN net_137:1 0.0010
3 inst_140:A3 net_137:3 0.0050
4 net_137:2 net_137:1 0.0050
5 net_137:2 net_137:3 0.0055
*END

*D_NET net_132 0.6584
*CONN
*I inst_173:ZN O
*I inst_122:A2 I
*I inst_90:A3 I
*I inst_93:A3 I
*CAP
1 inst_173:ZN 0.0076
2 inst_122:A2 0.0166
3 inst_90:A3 0.0252
4 inst_93:A3 0.0442
5 net_132:1 0.0278
6 net_132:2 0.0278
7 net_132:3 0.0400
8 net_132:4 0.0642
9 net_132:5 0.2042
10 net_132:6 0.0335
11 net_132:7 0.0159
12 net_132:8 0.1514
*RES
2 inst_93:A3 net_132:3 0.0041
3 net_132:1 inst_122:A2 0.0050
4 net_132:2 net_132:1 0.0015
5 net_132:3 net_132:2 0.0050
6 net_132:4 inst_93:A3 0.0050
7 net_132:5 net_132:4 0.0045
8 net_132:5 net_132:6 0.0050
9 net_132:6 inst_90:A3 0.0031
10 net_132:7 inst_173:ZN 0.0010
11 net_132:8 net_132:5 0.0140
12 net_132:8 net_132:7 0.0050
*END

*D_NET net_54 0.3189
*CONN
*I inst_45:ZN O
*I inst_51:A I
*CAP
1 inst_45:ZN 0.0166
2 inst_51:A 0.0166
3 net_54:1 0.0775
4 net_54:2 0.0775
5 net_54:3 0.0578
6 net_54:4 0.0578
7 net_54:5 0.0152
*RES
2 inst_51:A net_54:5 0.0050
3 net_54:1 inst_45:ZN 0.0050
4 net_54:2 net_54:1 0.0060
5 net_54:3 net_54:2 0.0050
6 net_54:4 net_54:3 0.0041
7 net_54:5 net_54:4 0.0050
*END

*D_NET n18 1.0941
*CONN
*I inst_19:Z O
*P n18 O
*CAP
1 n18 0.1931
2 inst_19:Z 0.0166
3 n18:1 0.0219
4 n18:2 0.0219
5 n18:3 0.0141
6 n18:4 0.0141
7 n18:5 0.2921
8 n18:6 0.2921
9 n18:7 0.0118
10 n18:8 0.0118
11 n18:9 0.2045
*RES
2 n18 n18:9 0.0176
3 n18:1 inst_19:Z 0.0050
4 n18:2 n18:1 0.0025
5 n18:3 n18:2 0.0050
6 n18:4 n18:3 0.0010
7 n18:5 n18:4 0.0050
8 n18:6 n18:5 0.0090
9 n18:7 n18:6 0.0050
10 n18:8 n18:7 0.0010
11 n18:9 n18:8 0.0050
*END

*D_NET net_105 0.8104
*CONN
*I inst_198:ZN O
*I inst_171:A2 I
*I inst_211:A3 I
*I inst_206:A3 I
*CAP
1 inst_198:ZN 0.0166
2 inst_171:A2 0.0072
3 inst_211:A3 0.0166
4 inst_206:A3 0.0166
5 net_105:1 0.0196
6 net_105:2 0.0152
7 net_105:3 0.0228
8 net_105:4 0.0531
9 net_105:5 0.0379
10 net_105:6 0.0152
11 net_105:7 0.0294
12 net_105:8 0.0294
13 net_105:9 0.0431
14 net_105:10 0.0780
15 net_105:11 0.0425
16 net_105:12 0.0151
17 net_105:13 0.0151
18 net_105:14 0.1131
19 net_105:15 0.1131
20 net_105:16 0.0301
21 net_105:17 0.0301
22 net_105:18 0.0253
23 net_105:19 0.0253
*RES
2 inst_171:A2 net_105:1 0.0010
3 net_105:2 net_105:1 0.0050
4 net_105:3 net_105:2 0.0050
5 net_105:3 net_105:4 0.0010
6 net_105:4 net_105:5 0.0020
7 net_105:5 net_105:6 0.0050
8 net_105:6 inst_211:A3 0.0050
9 net_105:7 inst_206:A3 0.0050
10 net_105:7 net_105:8 0.0020
11 net_105:9 net_105:8 0.0050
12 net_105:9 net_105:10 0.0034
13 net_105:10 net_105:11 0.0025
14 net_105:11 net_105:12 0.0050
15 net_105:13 net_105:12 0.0010
16 net_105:13 net_105:14 0.0030
17 net_105:14 net_105:15 0.0038
18 net_105:15 net_105:16 0.0030
19 net_105:17 net_105:4 0.0050
20 net_105:17 net_105:16 0.0010
21 net_105:18 inst_198:ZN 0.0050
22 net_105:19 net_105:10 0.0050
23 net_105:19 net_105:18 0.0015
*END

*D_NET net_62 0.1121
*CONN
*I inst_215:ZN O
*I inst_55:B I
*CAP
1 inst_215:ZN 0.0166
2 inst_55:B 0.0166
3 net_62:1 0.0394
4 net_62:2 0.0394
*RES
2 inst_55:B net_62:2 0.0050
3 net_62:1 inst_215:ZN 0.0050
4 net_62:2 net_62:1 0.0045
*END

*D_NET net_6 0.1381
*CONN
*I inst_1:Z O
*I inst_29:A I
*CAP
1 inst_1:Z 0.0072
2 inst_29:A 0.0166
3 net_6:1 0.0152
4 net_6:2 0.0218
5 net_6:3 0.0218
6 net_6:4 0.0179
7 net_6:5 0.0179
8 net_6:6 0.0196
*RES
2 net_6:1 inst_29:A 0.0050
3 net_6:2 net_6:1 0.0050
4 net_6:2 net_6:3 0.0014
5 net_6:4 net_6:3 0.0050
6 net_6:5 net_6:4 0.0010
7 net_6:6 inst_1:Z 0.0010
8 net_6:6 net_6:5 0.0050
*END

*D_NET net_129 0.9613
*CONN
*I inst_211:ZN O
*I inst_175:A1 I
*I inst_176:A1 I
*I inst_177:A1 I
*I inst_178:A1 I
*CAP
1 inst_211:ZN 0.0215
2 inst_175:A1 0.0166
3 inst_176:A1 0.0166
4 inst_177:A1 0.0166
5 inst_178:A1 0.0166
6 net_129:1 0.0175
7 net_129:2 0.0213
8 net_129:3 0.0412
9 net_129:4 0.0412
10 net_129:5 0.0233
11 net_129:6 0.0971
12 net_129:7 0.0829
13 net_129:8 0.0188
14 net_129:9 0.0188
15 net_129:10 0.0320
16 net_129:11 0.0516
17 net_129:12 0.0209
18 net_129:13 0.0232
19 net_129:14 0.0298
20 net_129:15 0.0173
21 net_129:16 0.0173
22 net_129:17 0.1440
23 net_129:18 0.1440
24 net_129:19 0.0310
*RES
2 inst_211:ZN net_129:14 0.0031
3 net_129:1 inst_175:A1 0.0050
4 net_129:1 net_129:2 0.0010
5 net_129:3 net_129:2 0.0050
6 net_129:3 net_129:4 0.0034
7 net_129:5 inst_176:A1 0.0050
8 net_129:5 net_129:4 0.0050
9 net_129:6 net_129:5 0.0015
10 net_129:6 net_129:13 0.0010
11 net_129:7 net_129:6 0.0095
12 net_129:8 net_129:7 0.0050
13 net_129:8 net_129:9 0.0014
14 net_129:10 net_129:9 0.0050
15 net_129:11 inst_178:A1 0.0050
16 net_129:11 net_129:10 0.0015
17 net_129:12 inst_177:A1 0.0050
18 net_129:12 net_129:13 0.0010
19 net_129:15 net_129:14 0.0050
20 net_129:16 net_129:15 0.0010
21 net_129:17 net_129:16 0.0050
22 net_129:17 net_129:18 0.0156
23 net_129:19 net_129:11 0.0030
24 net_129:19 net_129:18 0.0050
*END

*D_NET net_119 0.3477
*CONN
*I inst_89:ZN O
*I inst_145:A1 I
*I inst_146:A1 I
*CAP
1 inst_89:ZN 0.0166
2 inst_145:A1 0.0166
3 inst_146:A1 0.0166
4 net_119:1 0.0152
5 net_119:2 0.0798
6 net_119:3 0.0438
7 net_119:4 0.0152
8 net_119:5 0.0501
9 net_119:6 0.0501
10 net_119:7 0.0436
*RES
2 net_119:1 inst_145:A1 0.0050
3 net_119:2 net_119:1 0.0050
4 net_119:2 net_119:3 0.0034
5 net_119:3 net_119:4 0.0050
6 net_119:4 inst_146:A1 0.0050
7 net_119:5 inst_89:ZN 0.0050
8 net_119:6 net_119:5 0.0050
9 net_119:7 net_119:2 0.0041
10 net_119:7 net_119:6 0.0050
*END

*D_NET net_98 0.0287
*CONN
*I inst_200:ZN O
*I inst_178:A2 I
*CAP
1 inst_200:ZN 0.0143
2 inst_178:A2 0.0143
*RES
2 inst_200:ZN inst_178:A2 0.0021
*END

*D_NET net_23 0.9854
*CONN
*I inst_141:ZN O
*I inst_48:B I
*CAP
1 inst_141:ZN 0.0166
2 inst_48:B 0.0166
3 net_23:1 0.0845
4 net_23:2 0.0845
5 net_23:3 0.2265
6 net_23:4 0.2265
7 net_23:5 0.0691
8 net_23:6 0.0691
9 net_23:7 0.0883
10 net_23:8 0.0883
11 net_23:9 0.0152
*RES
2 inst_48:B net_23:9 0.0050
3 net_23:1 inst_141:ZN 0.0050
4 net_23:1 net_23:2 0.0065
5 net_23:3 net_23:2 0.0050
6 net_23:3 net_23:4 0.0209
7 net_23:5 net_23:4 0.0050
8 net_23:5 net_23:6 0.0027
9 net_23:7 net_23:6 0.0050
10 net_23:7 net_23:8 0.0110
11 net_23:9 net_23:8 0.0050
*END

*D_NET net_117 0.1990
*CONN
*I inst_137:ZN O
*I inst_208:A3 I
*CAP
1 inst_137:ZN 0.0126
2 inst_208:A3 0.0166
3 net_117:1 0.0152
4 net_117:2 0.0346
5 net_117:3 0.0346
6 net_117:4 0.0323
7 net_117:5 0.0323
8 net_117:6 0.0209
*RES
2 inst_137:ZN net_117:6 0.0021
3 net_117:1 inst_208:A3 0.0050
4 net_117:2 net_117:1 0.0050
5 net_117:3 net_117:2 0.0020
6 net_117:4 net_117:3 0.0050
7 net_117:5 net_117:4 0.0015
8 net_117:6 net_117:5 0.0050
*END

*D_NET net_12 0.1415
*CONN
*I inst_5:Z O
*I inst_32:A I
*CAP
1 inst_5:Z 0.0166
2 inst_32:A 0.0166
3 net_12:1 0.0152
4 net_12:2 0.0304
5 net_12:3 0.0304
6 net_12:4 0.0162
7 net_12:5 0.0162
*RES
2 inst_5:Z net_12:5 0.0050
3 net_12:1 inst_32:A 0.0050
4 net_12:2 net_12:1 0.0050
5 net_12:3 net_12:2 0.0020
6 net_12:4 net_12:3 0.0050
7 net_12:5 net_12:4 0.0010
*END

*D_NET net_151 0.5379
*CONN
*I inst_177:ZN O
*I inst_60:B I
*I inst_139:A3 I
*CAP
1 inst_177:ZN 0.0166
2 inst_60:B 0.0166
3 inst_139:A3 0.0166
4 net_151:1 0.0278
5 net_151:2 0.0278
6 net_151:3 0.0404
7 net_151:4 0.0404
8 net_151:5 0.0483
9 net_151:6 0.0578
10 net_151:7 0.0209
11 net_151:8 0.0954
12 net_151:9 0.0954
13 net_151:10 0.0169
14 net_151:11 0.0169
*RES
2 inst_177:ZN net_151:6 0.0050
3 net_151:1 inst_139:A3 0.0050
4 net_151:1 net_151:2 0.0020
5 net_151:3 net_151:2 0.0050
6 net_151:4 net_151:3 0.0027
7 net_151:5 net_151:4 0.0050
8 net_151:5 net_151:6 0.0035
9 net_151:6 net_151:7 0.0010
10 net_151:7 net_151:8 0.0050
11 net_151:8 net_151:9 0.0088
12 net_151:9 net_151:10 0.0050
13 net_151:11 inst_60:B 0.0050
14 net_151:11 net_151:10 0.0010
*END

*D_NET net_74 0.6090
*CONN
*I inst_51:ZN O
*I inst_107:A2 I
*I inst_66:B I
*CAP
1 inst_51:ZN 0.0166
2 inst_107:A2 0.0076
3 inst_66:B 0.0166
4 net_74:1 0.0492
5 net_74:2 0.0492
6 net_74:3 0.1967
7 net_74:4 0.1159
8 net_74:5 0.0152
9 net_74:6 0.0159
10 net_74:7 0.0189
11 net_74:8 0.0189
12 net_74:9 0.0884
*RES
2 inst_107:A2 net_74:6 0.0010
3 net_74:1 inst_66:B 0.0050
4 net_74:2 net_74:1 0.0030
5 net_74:3 net_74:2 0.0050
6 net_74:3 net_74:9 0.0102
7 net_74:4 net_74:3 0.0081
8 net_74:4 net_74:5 0.0050
9 net_74:5 net_74:6 0.0050
10 net_74:7 inst_51:ZN 0.0050
11 net_74:7 net_74:8 0.0015
12 net_74:9 net_74:8 0.0050
*END

*D_NET net_53 1.7139
*CONN
*I inst_42:ZN O
*I inst_213:A2 I
*I inst_102:A2 I
*I inst_45:B I
*I inst_46:B I
*CAP
1 inst_42:ZN 0.0166
2 inst_213:A2 0.0166
3 inst_102:A2 0.0167
4 inst_45:B 0.0166
5 inst_46:B 0.0166
6 net_53:1 0.0182
7 net_53:2 0.0182
8 net_53:3 0.0707
9 net_53:4 0.1052
10 net_53:5 0.0846
11 net_53:6 0.0781
12 net_53:7 0.0781
13 net_53:8 0.2233
14 net_53:9 0.2233
15 net_53:10 0.0152
16 net_53:11 0.0152
17 net_53:12 0.0355
18 net_53:13 0.1316
19 net_53:14 0.0456
20 net_53:15 0.0418
21 net_53:16 0.0250
22 net_53:17 0.0152
23 net_53:18 0.0260
24 net_53:19 0.0260
25 net_53:20 0.1037
26 net_53:21 0.1000
27 net_53:22 0.1000
28 net_53:23 0.0502
*RES
2 inst_102:A2 net_53:16 0.0021
3 net_53:1 inst_213:A2 0.0050
4 net_53:2 net_53:1 0.0010
5 net_53:3 net_53:2 0.0050
6 net_53:3 net_53:23 0.0034
7 net_53:4 net_53:3 0.0020
8 net_53:4 net_53:17 0.0050
9 net_53:5 net_53:4 0.0066
10 net_53:5 net_53:6 0.0050
11 net_53:7 net_53:6 0.0021
12 net_53:7 net_53:8 0.0030
13 net_53:9 net_53:8 0.0084
14 net_53:9 net_53:10 0.0030
15 net_53:10 net_53:11 0.0010
16 net_53:11 net_53:12 0.0050
17 net_53:13 net_53:12 0.0025
18 net_53:13 net_53:14 0.0050
19 net_53:15 inst_45:B 0.0050
20 net_53:15 net_53:14 0.0050
21 net_53:17 net_53:16 0.0050
22 net_53:18 inst_46:B 0.0050
23 net_53:19 net_53:18 0.0015
24 net_53:20 net_53:13 0.0081
25 net_53:20 net_53:19 0.0050
26 net_53:21 inst_42:ZN 0.0050
27 net_53:21 net_53:22 0.0085
28 net_53:23 net_53:22 0.0050
*END

*D_NET net_93 0.2815
*CONN
*I inst_195:ZN O
*I inst_80:A2 I
*I inst_89:A2 I
*CAP
1 inst_195:ZN 0.0099
2 inst_80:A2 0.0166
3 inst_89:A2 0.0320
4 net_93:1 0.0182
5 net_93:2 0.0268
6 net_93:3 0.0268
7 net_93:4 0.0237
8 net_93:5 0.0152
9 net_93:6 0.0300
10 net_93:7 0.0300
11 net_93:8 0.0262
12 net_93:9 0.0262
*RES
2 inst_195:ZN net_93:1 0.0010
3 inst_80:A2 net_93:9 0.0050
4 inst_89:A2 net_93:4 0.0021
5 inst_89:A2 net_93:3 0.0050
6 net_93:2 net_93:1 0.0050
7 net_93:2 net_93:3 0.0020
8 net_93:5 net_93:4 0.0050
9 net_93:6 net_93:5 0.0050
10 net_93:6 net_93:7 0.0020
11 net_93:8 net_93:7 0.0050
12 net_93:8 net_93:9 0.0015
*END

*D_NET n63 0.8899
*CONN
*I inst_130:ZN O
*P n63 O
*CAP
1 n63 0.0016
2 inst_130:ZN 0.0072
3 n63:1 0.0196
4 n63:2 0.0152
5 n63:3 0.4064
6 n63:4 0.4102
7 n63:5 0.0179
8 n63:6 0.0119
*RES
2 inst_130:ZN n63:1 0.0010
3 n63:2 n63:1 0.0050
4 n63:3 n63:2 0.0050
5 n63:3 n63:4 0.0292
6 n63:5 n63:4 0.0050
7 n63:6 n63 0.0010
8 n63:6 n63:5 0.0011
*END

*D_NET net_168 0.2903
*CONN
*I inst_147:ZN O
*I inst_183:A2 I
*CAP
1 inst_147:ZN 0.0154
2 inst_183:A2 0.0243
3 net_168:1 0.0237
4 net_168:2 0.0493
5 net_168:3 0.0493
6 net_168:4 0.0382
7 net_168:5 0.0420
8 net_168:6 0.0152
9 net_168:7 0.0326
*RES
2 inst_183:A2 net_168:7 0.0041
3 net_168:1 inst_147:ZN 0.0021
4 net_168:2 net_168:1 0.0050
5 net_168:2 net_168:3 0.0030
6 net_168:4 net_168:3 0.0050
7 net_168:5 net_168:4 0.0034
8 net_168:6 net_168:5 0.0050
9 net_168:7 net_168:6 0.0050
*END

*D_NET net_135 0.8781
*CONN
*I inst_165:ZN O
*I inst_91:A1 I
*I inst_92:A1 I
*CAP
1 inst_165:ZN 0.0166
2 inst_91:A1 0.0166
3 inst_92:A1 0.0166
4 net_135:1 0.1112
5 net_135:2 0.0615
6 net_135:3 0.0778
7 net_135:4 0.0778
8 net_135:5 0.0688
9 net_135:6 0.0688
10 net_135:7 0.0220
11 net_135:8 0.0220
12 net_135:9 0.0206
13 net_135:10 0.0206
14 net_135:11 0.0474
15 net_135:12 0.0474
16 net_135:13 0.0607
17 net_135:14 0.0607
18 net_135:15 0.0611
*RES
2 net_135:1 inst_91:A1 0.0050
3 net_135:1 net_135:15 0.0045
4 net_135:2 net_135:1 0.0040
5 net_135:2 net_135:3 0.0050
6 net_135:3 net_135:4 0.0073
7 net_135:4 net_135:5 0.0050
8 net_135:6 net_135:5 0.0021
9 net_135:6 net_135:7 0.0050
10 net_135:7 net_135:8 0.0015
11 net_135:8 net_135:9 0.0050
12 net_135:10 inst_92:A1 0.0050
13 net_135:10 net_135:9 0.0010
14 net_135:11 inst_165:ZN 0.0050
15 net_135:12 net_135:11 0.0030
16 net_135:13 net_135:12 0.0050
17 net_135:13 net_135:14 0.0041
18 net_135:15 net_135:14 0.0050
*END

*D_NET n27 0.4137
*CONN
*I inst_56:ZN O
*P n27 O
*CAP
1 n27 0.1399
2 inst_56:ZN 0.0166
3 n27:1 0.0572
4 n27:2 0.0548
5 n27:3 0.1451
*RES
2 n27 n27:3 0.0126
3 n27:1 inst_56:ZN 0.0050
4 n27:2 n27:1 0.0080
5 n27:3 n27:2 0.0010
*END

*D_NET net_130 1.1220
*CONN
*I inst_167:ZN O
*I inst_114:A2 I
*I inst_74:A3 I
*I inst_93:A2 I
*CAP
1 inst_167:ZN 0.0166
2 inst_114:A2 0.0166
3 inst_74:A3 0.0166
4 inst_93:A2 0.0166
5 net_130:1 0.0680
6 net_130:2 0.0157
7 net_130:3 0.0157
8 net_130:4 0.0177
9 net_130:5 0.0829
10 net_130:6 0.0829
11 net_130:7 0.1540
12 net_130:8 0.1540
13 net_130:9 0.0435
14 net_130:10 0.0152
15 net_130:11 0.0680
16 net_130:12 0.0515
17 net_130:13 0.0515
18 net_130:14 0.0741
19 net_130:15 0.0741
20 net_130:16 0.0215
21 net_130:17 0.0215
22 net_130:18 0.0435
*RES
2 net_130:1 inst_114:A2 0.0050
3 net_130:1 net_130:11 0.0070
4 net_130:2 net_130:1 0.0050
5 net_130:3 net_130:2 0.0010
6 net_130:4 net_130:3 0.0050
7 net_130:5 net_130:4 0.0030
8 net_130:6 net_130:5 0.0029
9 net_130:7 net_130:6 0.0030
10 net_130:8 net_130:7 0.0040
11 net_130:9 net_130:8 0.0050
12 net_130:9 net_130:10 0.0050
13 net_130:10 inst_74:A3 0.0050
14 net_130:11 inst_93:A2 0.0050
15 net_130:12 inst_167:ZN 0.0050
16 net_130:13 net_130:12 0.0035
17 net_130:14 net_130:13 0.0050
18 net_130:14 net_130:15 0.0055
19 net_130:16 net_130:15 0.0050
20 net_130:17 net_130:16 0.0010
21 net_130:18 net_130:9 0.0040
22 net_130:18 net_130:17 0.0050
*END

*D_NET n113 2.1819
*CONN
*P n113 I
*I inst_5:B I
*I inst_29:B I
*I inst_20:B I
*CAP
1 n113 0.0195
2 inst_5:B 0.0166
3 inst_29:B 0.0332
4 inst_20:B 0.0166
5 n113:1 0.0339
6 n113:2 0.0339
7 n113:3 0.0642
8 n113:4 0.0863
9 n113:5 0.0297
10 n113:6 0.5473
11 n113:7 0.5473
12 n113:8 0.0115
13 n113:9 0.0115
14 n113:10 0.0152
15 n113:11 0.0309
16 n113:12 0.1232
17 n113:13 0.1232
18 n113:14 0.1914
19 n113:15 0.1914
20 n113:16 0.0276
21 n113:17 0.0276
*RES
2 inst_29:B n113:15 0.0050
3 n113:1 inst_5:B 0.0050
4 n113:1 n113:2 0.0025
5 n113:3 n113:2 0.0050
6 n113:4 n113:3 0.0047
7 n113:5 n113:4 0.0031
8 n113:5 n113:6 0.0050
9 n113:7 n113:6 0.0179
10 n113:7 n113:8 0.0050
11 n113:8 n113:9 0.0010
12 n113:9 n113:10 0.0050
13 n113:10 inst_20:B 0.0050
14 n113:11 n113 0.0020
15 n113:12 n113:11 0.0050
16 n113:12 n113:13 0.0120
17 n113:14 n113:13 0.0050
18 n113:15 n113:14 0.0190
19 n113:16 inst_29:B 0.0050
20 n113:17 n113:4 0.0050
21 n113:17 n113:16 0.0020
*END

*D_NET net_147 0.7156
*CONN
*I inst_175:ZN O
*I inst_181:A2 I
*I inst_57:B I
*CAP
1 inst_175:ZN 0.0166
2 inst_181:A2 0.0278
3 inst_57:B 0.0166
4 net_147:1 0.0222
5 net_147:2 0.0184
6 net_147:3 0.0473
7 net_147:4 0.0473
8 net_147:5 0.0668
9 net_147:6 0.0668
10 net_147:7 0.0316
11 net_147:8 0.0316
12 net_147:9 0.0178
13 net_147:10 0.0178
14 net_147:11 0.0628
15 net_147:12 0.0628
16 net_147:13 0.0613
17 net_147:14 0.0613
18 net_147:15 0.0152
19 net_147:16 0.0236
*RES
2 inst_181:A2 net_147:10 0.0050
3 net_147:1 inst_57:B 0.0050
4 net_147:2 net_147:1 0.0010
5 net_147:3 net_147:2 0.0050
6 net_147:4 net_147:3 0.0029
7 net_147:5 net_147:4 0.0050
8 net_147:6 net_147:5 0.0015
9 net_147:7 net_147:6 0.0050
10 net_147:8 net_147:7 0.0033
11 net_147:9 net_147:8 0.0050
12 net_147:10 net_147:9 0.0010
13 net_147:11 inst_175:ZN 0.0050
14 net_147:11 net_147:12 0.0050
15 net_147:13 net_147:12 0.0050
16 net_147:13 net_147:14 0.0061
17 net_147:15 net_147:14 0.0050
18 net_147:16 inst_181:A2 0.0021
19 net_147:16 net_147:15 0.0050
*END

*D_NET net_127 1.1718
*CONN
*I inst_78:ZN O
*I inst_116:A2 I
*I inst_89:A3 I
*I inst_122:A1 I
*I inst_91:A2 I
*CAP
1 inst_78:ZN 0.0152
2 inst_116:A2 0.0076
3 inst_89:A3 0.0166
4 inst_122:A1 0.0166
5 inst_91:A2 0.0184
6 net_127:1 0.0159
7 net_127:2 0.0152
8 net_127:3 0.0382
9 net_127:4 0.0382
10 net_127:5 0.0240
11 net_127:6 0.0612
12 net_127:7 0.0726
13 net_127:8 0.1118
14 net_127:9 0.1156
15 net_127:10 0.0648
16 net_127:11 0.0267
17 net_127:12 0.0328
18 net_127:13 0.0328
19 net_127:14 0.1061
20 net_127:15 0.1061
21 net_127:16 0.0685
22 net_127:17 0.0235
23 net_127:18 0.0517
24 net_127:19 0.0540
25 net_127:20 0.0377
*RES
2 inst_78:ZN net_127:17 0.0021
3 inst_116:A2 net_127:1 0.0010
4 net_127:2 net_127:1 0.0050
5 net_127:3 net_127:2 0.0050
6 net_127:3 net_127:4 0.0027
7 net_127:5 net_127:4 0.0050
8 net_127:5 net_127:6 0.0015
9 net_127:6 inst_89:A3 0.0050
10 net_127:6 net_127:7 0.0055
11 net_127:7 net_127:20 0.0045
12 net_127:7 net_127:8 0.0050
13 net_127:8 net_127:9 0.0081
14 net_127:9 net_127:10 0.0050
15 net_127:10 net_127:16 0.0080
16 net_127:10 net_127:11 0.0050
17 net_127:11 inst_91:A2 0.0021
18 net_127:12 inst_122:A1 0.0050
19 net_127:13 net_127:12 0.0025
20 net_127:14 net_127:13 0.0050
21 net_127:15 net_127:14 0.0109
22 net_127:16 net_127:15 0.0050
23 net_127:18 net_127:17 0.0050
24 net_127:19 net_127:18 0.0035
25 net_127:19 net_127:20 0.0010
*END

*D_NET net_14 0.7793
*CONN
*I inst_188:ZN O
*I inst_156:A2 I
*I inst_215:A1 I
*CAP
1 inst_188:ZN 0.0166
2 inst_156:A2 0.0166
3 inst_215:A1 0.0166
4 net_14:1 0.0152
5 net_14:2 0.0096
6 net_14:3 0.1333
7 net_14:4 0.1313
8 net_14:5 0.0162
9 net_14:6 0.0162
10 net_14:7 0.0182
11 net_14:8 0.0182
12 net_14:9 0.0842
13 net_14:10 0.0842
14 net_14:11 0.1015
15 net_14:12 0.1015
*RES
2 net_14:1 inst_156:A2 0.0050
3 net_14:2 net_14:1 0.0050
4 net_14:2 net_14:3 0.0010
5 net_14:3 net_14:4 0.0140
6 net_14:4 net_14:5 0.0050
7 net_14:5 net_14:6 0.0010
8 net_14:6 inst_215:A1 0.0050
9 net_14:7 inst_188:ZN 0.0050
10 net_14:8 net_14:7 0.0010
11 net_14:9 net_14:8 0.0050
12 net_14:10 net_14:9 0.0045
13 net_14:11 net_14:10 0.0050
14 net_14:12 net_14:3 0.0050
15 net_14:12 net_14:11 0.0038
*END

*D_NET n146 3.5675
*CONN
*P n146 I
*I inst_9:A I
*I inst_10:A I
*I inst_61:A I
*CAP
1 n146 0.0130
2 inst_9:A 0.0332
3 inst_10:A 0.0166
4 inst_61:A 0.0166
5 n146:1 0.0152
6 n146:2 0.0277
7 n146:3 0.0571
8 n146:4 0.2666
9 n146:5 0.2666
10 n146:6 0.0240
11 n146:7 0.0240
12 n146:8 0.1016
13 n146:9 0.1016
14 n146:10 0.0664
15 n146:11 0.0664
16 n146:12 0.0207
17 n146:13 0.0207
18 n146:14 0.1191
19 n146:15 0.1228
20 n146:16 0.0206
21 n146:17 0.0192
22 n146:18 0.0456
23 n146:19 0.0450
24 n146:20 0.7804
25 n146:21 0.7807
26 n146:22 0.2294
27 n146:23 0.2294
28 n146:24 0.0371
*RES
2 n146 n146:16 0.0010
3 inst_9:A n146:6 0.0050
4 n146:1 inst_61:A 0.0050
5 n146:2 n146:1 0.0050
6 n146:3 n146:2 0.0020
7 n146:3 n146:4 0.0050
8 n146:4 n146:5 0.0250
9 n146:5 inst_9:A 0.0050
10 n146:6 n146:7 0.0015
11 n146:7 n146:8 0.0050
12 n146:9 n146:8 0.0074
13 n146:9 n146:10 0.0050
14 n146:10 n146:11 0.0015
15 n146:11 n146:12 0.0050
16 n146:13 n146:12 0.0010
17 n146:13 n146:14 0.0050
18 n146:14 n146:15 0.0115
19 n146:15 inst_10:A 0.0050
20 n146:17 n146:16 0.0050
21 n146:18 n146:17 0.0010
22 n146:18 n146:19 0.0041
23 n146:19 n146:20 0.0010
24 n146:20 n146:21 0.0726
25 n146:22 n146:21 0.0050
26 n146:22 n146:23 0.0071
27 n146:24 n146:3 0.0048
28 n146:24 n146:23 0.0050
*END

*D_NET net_113 0.7568
*CONN
*I inst_116:ZN O
*I inst_201:A I
*I inst_206:A4 I
*I inst_207:A4 I
*I inst_137:A4 I
*CAP
1 inst_116:ZN 0.0317
2 inst_201:A 0.0201
3 inst_206:A4 0.0166
4 inst_207:A4 0.0166
5 inst_137:A4 0.0201
6 net_113:1 0.0160
7 net_113:2 0.0883
8 net_113:3 0.0883
9 net_113:4 0.0152
10 net_113:5 0.0492
11 net_113:6 0.0906
12 net_113:7 0.0489
13 net_113:8 0.0198
14 net_113:9 0.0198
15 net_113:10 0.0152
16 net_113:11 0.0400
17 net_113:12 0.0152
18 net_113:13 0.0570
19 net_113:14 0.0570
20 net_113:15 0.0152
21 net_113:16 0.0160
*RES
2 inst_201:A net_113:1 0.0010
3 inst_201:A net_113:9 0.0050
4 inst_137:A4 net_113:16 0.0010
5 inst_137:A4 net_113:3 0.0050
6 net_113:2 net_113:1 0.0050
7 net_113:2 net_113:3 0.0105
8 net_113:4 inst_206:A4 0.0050
9 net_113:5 net_113:4 0.0050
10 net_113:6 net_113:5 0.0034
11 net_113:6 net_113:10 0.0050
12 net_113:7 net_113:6 0.0034
13 net_113:8 net_113:7 0.0050
14 net_113:8 net_113:9 0.0015
15 net_113:10 inst_207:A4 0.0050
16 net_113:11 inst_116:ZN 0.0041
17 net_113:12 net_113:11 0.0050
18 net_113:13 net_113:12 0.0050
19 net_113:14 net_113:13 0.0061
20 net_113:15 net_113:14 0.0050
21 net_113:16 net_113:15 0.0050
*END

*D_NET net_26 0.7844
*CONN
*I inst_85:ZN O
*I inst_38:A I
*CAP
1 inst_85:ZN 0.0076
2 inst_38:A 0.0166
3 net_26:1 0.0159
4 net_26:2 0.0152
5 net_26:3 0.0092
6 net_26:4 0.0092
7 net_26:5 0.2382
8 net_26:6 0.2382
9 net_26:7 0.0336
10 net_26:8 0.0336
11 net_26:9 0.0817
12 net_26:10 0.0855
*RES
2 inst_38:A net_26:10 0.0050
3 net_26:1 inst_85:ZN 0.0010
4 net_26:2 net_26:1 0.0050
5 net_26:3 net_26:2 0.0050
6 net_26:4 net_26:3 0.0010
7 net_26:5 net_26:4 0.0050
8 net_26:5 net_26:6 0.0080
9 net_26:7 net_26:6 0.0050
10 net_26:7 net_26:8 0.0028
11 net_26:9 net_26:8 0.0050
12 net_26:9 net_26:10 0.0090
*END

*D_NET net_76 0.5472
*CONN
*I inst_88:ZN O
*I inst_17:B I
*CAP
1 inst_88:ZN 0.0166
2 inst_17:B 0.0166
3 net_76:1 0.0352
4 net_76:2 0.0352
5 net_76:3 0.0156
6 net_76:4 0.0156
7 net_76:5 0.1768
8 net_76:6 0.1768
9 net_76:7 0.0090
10 net_76:8 0.0090
11 net_76:9 0.0224
12 net_76:10 0.0186
*RES
2 inst_17:B net_76:10 0.0050
3 net_76:1 inst_88:ZN 0.0050
4 net_76:2 net_76:1 0.0020
5 net_76:3 net_76:2 0.0050
6 net_76:3 net_76:4 0.0010
7 net_76:5 net_76:4 0.0050
8 net_76:6 net_76:5 0.0042
9 net_76:7 net_76:6 0.0050
10 net_76:8 net_76:7 0.0010
11 net_76:9 net_76:8 0.0050
12 net_76:10 net_76:9 0.0010
*END

*D_NET n128 2.7718
*CONN
*P n128 I
*I inst_2:A I
*I inst_8:B I
*I inst_36:B I
*I inst_62:A I
*CAP
1 n128 0.1443
2 inst_2:A 0.0166
3 inst_8:B 0.0166
4 inst_36:B 0.0166
5 inst_62:A 0.0166
6 n128:1 0.0310
7 n128:2 0.0310
8 n128:3 0.0999
9 n128:4 0.1883
10 n128:5 0.0960
11 n128:6 0.3413
12 n128:7 0.3413
13 n128:8 0.0094
14 n128:9 0.0094
15 n128:10 0.0178
16 n128:11 0.0635
17 n128:12 0.0796
18 n128:13 0.0339
19 n128:14 0.0806
20 n128:15 0.0806
21 n128:16 0.2799
22 n128:17 0.2799
23 n128:18 0.1031
24 n128:19 0.1031
25 n128:20 0.0178
26 n128:21 0.0178
27 n128:22 0.1489
28 n128:23 0.0519
29 n128:24 0.0549
*RES
2 n128:1 inst_2:A 0.0050
3 n128:1 n128:2 0.0035
4 n128:3 n128:2 0.0050
5 n128:3 n128:4 0.0095
6 n128:4 n128:5 0.0087
7 n128:5 n128:6 0.0050
8 n128:7 n128:6 0.0092
9 n128:7 n128:8 0.0050
10 n128:8 n128:9 0.0010
11 n128:9 n128:10 0.0050
12 n128:11 inst_8:B 0.0050
13 n128:11 n128:10 0.0010
14 n128:12 inst_36:B 0.0050
15 n128:12 n128:11 0.0045
16 n128:13 n128:12 0.0025
17 n128:13 n128:14 0.0050
18 n128:14 n128:15 0.0089
19 n128:15 n128:16 0.0050
20 n128:17 n128:16 0.0092
21 n128:17 n128:18 0.0050
22 n128:19 n128:18 0.0089
23 n128:19 n128:20 0.0050
24 n128:21 inst_62:A 0.0050
25 n128:21 n128:20 0.0010
26 n128:22 n128 0.0130
27 n128:23 n128:22 0.0010
28 n128:24 n128:4 0.0050
29 n128:24 n128:23 0.0045
*END

*D_NET n101 3.9712
*CONN
*P n101 I
*I inst_34:B I
*I inst_38:B I
*I inst_22:B I
*CAP
1 n101 0.0010
2 inst_34:B 0.0166
3 inst_38:B 0.0166
4 inst_22:B 0.0166
5 n101:1 0.1489
6 n101:2 0.3784
7 n101:3 0.2118
8 n101:4 0.2892
9 n101:5 0.0850
10 n101:6 0.2884
11 n101:7 0.2884
12 n101:8 0.1927
13 n101:9 0.1927
14 n101:10 0.0679
15 n101:11 0.0679
16 n101:12 0.0137
17 n101:13 0.0137
18 n101:14 0.1500
19 n101:15 0.1500
20 n101:16 0.0323
21 n101:17 0.0323
22 n101:18 0.0152
23 n101:19 0.0152
24 n101:20 0.0109
25 n101:21 0.0175
26 n101:22 0.0241
27 n101:23 0.5012
28 n101:24 0.4961
29 n101:25 0.2371
*RES
2 n101:1 inst_38:B 0.0050
3 n101:1 n101:2 0.0135
4 n101:2 n101:25 0.0200
5 n101:2 n101:3 0.0050
6 n101:3 n101:4 0.0149
7 n101:4 n101:5 0.0109
8 n101:4 n101:19 0.0050
9 n101:5 n101:6 0.0050
10 n101:7 n101:6 0.0069
11 n101:7 n101:8 0.0030
12 n101:8 n101:9 0.0071
13 n101:9 n101:10 0.0030
14 n101:11 n101:10 0.0017
15 n101:11 n101:12 0.0050
16 n101:12 n101:13 0.0010
17 n101:13 n101:14 0.0050
18 n101:15 n101:14 0.0140
19 n101:15 n101:16 0.0050
20 n101:16 n101:17 0.0020
21 n101:17 n101:18 0.0050
22 n101:18 inst_22:B 0.0050
23 n101:19 inst_34:B 0.0050
24 n101:20 n101 0.0010
25 n101:20 n101:21 0.0010
26 n101:22 n101:21 0.0050
27 n101:23 n101:22 0.0010
28 n101:23 n101:24 0.0251
29 n101:25 n101:24 0.0050
*END

*D_NET net_101 1.1814
*CONN
*I inst_159:ZN O
*I inst_190:A I
*I inst_168:A1 I
*I inst_136:A1 I
*I inst_118:A1 I
*CAP
1 inst_159:ZN 0.0166
2 inst_190:A 0.0072
3 inst_168:A1 0.0166
4 inst_136:A1 0.0166
5 inst_118:A1 0.0166
6 net_101:1 0.0155
7 net_101:2 0.0152
8 net_101:3 0.0583
9 net_101:4 0.0533
10 net_101:5 0.0494
11 net_101:6 0.0752
12 net_101:7 0.0372
13 net_101:8 0.0156
14 net_101:9 0.0156
15 net_101:10 0.1413
16 net_101:11 0.1413
17 net_101:12 0.0759
18 net_101:13 0.0759
19 net_101:14 0.0208
20 net_101:15 0.0246
21 net_101:16 0.0178
22 net_101:17 0.0178
23 net_101:18 0.0738
24 net_101:19 0.0738
25 net_101:20 0.0283
26 net_101:21 0.0283
27 net_101:22 0.0165
28 net_101:23 0.0152
29 net_101:24 0.0215
*RES
2 net_101:1 inst_190:A 0.0010
3 net_101:2 net_101:1 0.0050
4 net_101:3 net_101:2 0.0050
5 net_101:3 net_101:4 0.0034
6 net_101:4 net_101:22 0.0010
7 net_101:4 net_101:5 0.0050
8 net_101:5 net_101:6 0.0030
9 net_101:6 inst_168:A1 0.0050
10 net_101:6 net_101:7 0.0040
11 net_101:7 net_101:8 0.0050
12 net_101:8 net_101:9 0.0010
13 net_101:9 net_101:10 0.0050
14 net_101:10 net_101:11 0.0053
15 net_101:11 net_101:12 0.0050
16 net_101:12 net_101:13 0.0073
17 net_101:13 net_101:14 0.0050
18 net_101:14 net_101:15 0.0010