*SPEF "IEEE 1481-1998"
*DESIGN "changes"
*DATE "Tue Dec 02 20:38:33 2014"
*VENDOR "TAU 2015 Contest"
*PROGRAM "Benchmark Parasitic Generator"
*VERSION "0.0"
*DESIGN_FLOW "NETLIST_TYPE_VERILOG"
*DIVIDER /
*DELIMITER :
*BUS_DELIMITER [ ]
*T_UNIT 1 PS
*C_UNIT 1 FF
*R_UNIT 1 KOHM
*L_UNIT 1 UH

*D_NET net_107 3.0173
*CONN
*I inst_218:ZN O
*I inst_172:A2 I
*I inst_144:A2 I
*CAP
1 inst_218:ZN 0.2611
2 net_107:1 0.4098
3 net_107:2 0.5009
4 net_107:3 0.2843
5 inst_172:A2 0.2878
6 net_107:4 0.4685
7 net_107:5 0.3070
8 net_107:6 0.3583
9 inst_144:A2 0.1395
*RES
2 inst_218:ZN net_107:1 0.1659
3 net_107:1 net_107:2 0.2742
4 net_107:2 net_107:3 0.3494
5 net_107:3 inst_172:A2 0.1485
6 net_107:3 net_107:4 0.0646
7 net_107:4 net_107:5 0.0794
8 net_107:5 net_107:6 0.2161
9 net_107:6 inst_144:A2 0.1614
*END

*D_NET net_166 3.3435
*CONN
*I inst_181:ZN O
*I inst_95:A1 I
*I inst_96:A2 I
*CAP
1 inst_181:ZN 0.3755
2 net_166:1 0.4559
3 net_166:2 0.4050
4 net_166:3 0.0154
5 net_166:4 0.1670
6 net_166:5 0.1555
7 inst_96:A2 0.2440
8 net_166:6 0.0740
9 net_166:7 0.4871
10 net_166:8 0.4951
11 net_166:9 0.4125
12 inst_95:A1 0.0565
*RES
2 inst_181:ZN net_166:1 0.0332
3 net_166:1 net_166:2 0.0406
4 net_166:2 net_166:3 0.2732
5 net_166:3 net_166:4 0.0073
6 net_166:4 net_166:5 0.1308
7 net_166:5 inst_96:A2 0.1374
8 net_166:4 net_166:6 0.1285
9 net_166:6 net_166:7 0.0292
10 net_166:7 net_166:8 0.2926
11 net_166:8 net_166:9 0.4507
12 net_166:9 inst_95:A1 0.3356
*END

*D_NET net_47 1.9602
*CONN
*I inst_40:ZN O
*I inst_44:B I
*CAP
1 inst_40:ZN 0.3845
2 net_47:1 0.3056
3 net_47:2 0.3464
4 net_47:3 0.0305
5 net_47:4 0.2383
6 net_47:5 0.4020
7 inst_44:B 0.2529
*RES
2 inst_40:ZN net_47:1 0.2665
3 net_47:1 net_47:2 0.4354
4 net_47:2 net_47:3 0.1977
5 net_47:3 net_47:4 0.0788
6 net_47:4 net_47:5 0.3276
7 net_47:5 inst_44:B 0.3833
*END

*D_NET net_179 0.8670
*CONN
*I inst_149:ZN O
*I inst_68:A I
*CAP
1 inst_149:ZN 0.0716
2 net_179:1 0.1922
3 net_179:2 0.2805
4 net_179:3 0.1322
5 inst_68:A 0.1905
*RES
2 inst_149:ZN net_179:1 0.4017
3 net_179:1 net_179:2 0.4680
4 net_179:2 net_179:3 0.2976
5 net_179:3 inst_68:A 0.2331
*END

*D_NET net_176 1.3358
*CONN
*I inst_27:Z O
*I inst_64:B I
*CAP
1 inst_27:Z 0.3943
2 net_176:1 0.1955
3 net_176:2 0.1868
4 net_176:3 0.4889
5 inst_64:B 0.0703
*RES
2 inst_27:Z net_176:1 0.3298
3 net_176:1 net_176:2 0.4131
4 net_176:2 net_176:3 0.3310
5 net_176:3 inst_64:B 0.2621
*END

*D_NET net_159 2.7698
*CONN
*I inst_221:ZN O
*I inst_26:A I
*I inst_82:A2 I
*CAP
1 inst_221:ZN 0.1808
2 net_159:1 0.3990
3 inst_82:A2 0.4035
4 net_159:2 0.3591
5 net_159:3 0.2780
6 net_159:4 0.2022
7 net_159:5 0.1593
8 net_159:6 0.4382
9 inst_26:A 0.3498
*RES
2 inst_221:ZN net_159:1 0.0219
3 net_159:1 inst_82:A2 0.0830
4 net_159:1 net_159:2 0.4055
5 net_159:2 net_159:3 0.4519
6 net_159:3 net_159:4 0.4658
7 net_159:4 net_159:5 0.3690
8 net_159:5 net_159:6 0.4019
9 net_159:6 inst_26:A 0.0632
*END

*D_NET net_61 3.0111
*CONN
*I inst_44:ZN O
*I inst_70:B I
*I inst_215:A2 I
*CAP
1 inst_44:ZN 0.4700
2 net_61:1 0.3545
3 net_61:2 0.1033
4 net_61:3 0.4316
5 net_61:4 0.1782
6 inst_70:B 0.4734
7 net_61:5 0.3840
8 net_61:6 0.2434
9 inst_215:A2 0.3726
*RES
2 inst_44:ZN net_61:1 0.0376
3 net_61:1 net_61:2 0.0972
4 net_61:2 net_61:3 0.3594
5 net_61:3 net_61:4 0.0525
6 net_61:4 inst_70:B 0.3248
7 net_61:3 net_61:5 0.2980
8 net_61:5 net_61:6 0.2454
9 net_61:6 inst_215:A2 0.4670
*END

*D_NET net_137 2.2362
*CONN
*I inst_81:ZN O
*I inst_140:A3 I
*I inst_94:A3 I
*CAP
1 inst_81:ZN 0.1376
2 net_137:1 0.1288
3 net_137:2 0.3022
4 net_137:3 0.1405
5 net_137:4 0.0668
6 net_137:5 0.3699
7 inst_140:A3 0.4131
8 net_137:6 0.2034
9 net_137:7 0.1592
10 inst_94:A3 0.3147
*RES
2 inst_81:ZN net_137:1 0.4004
3 net_137:1 net_137:2 0.4814
4 net_137:2 net_137:3 0.1341
5 net_137:3 net_137:4 0.3915
6 net_137:4 net_137:5 0.0282
7 net_137:5 inst_140:A3 0.3089
8 net_137:4 net_137:6 0.2761
9 net_137:6 net_137:7 0.3643
10 net_137:7 inst_94:A3 0.2288
*END

*D_NET net_132 3.0731
*CONN
*I inst_173:ZN O
*I inst_90:A3 I
*I inst_93:A3 I
*I inst_122:A2 I
*CAP
1 inst_173:ZN 0.3854
2 net_132:1 0.3774
3 net_132:2 0.2731
4 net_132:3 0.1525
5 net_132:4 0.0518
6 inst_90:A3 0.2548
7 net_132:5 0.2239
8 net_132:6 0.0917
9 inst_93:A3 0.4230
10 net_132:7 0.3484
11 net_132:8 0.0801
12 net_132:9 0.1392
13 net_132:10 0.1891
14 net_132:11 0.0464
15 inst_122:A2 0.0364
*RES
2 inst_173:ZN net_132:1 0.2154
3 net_132:1 net_132:2 0.4921
4 net_132:2 net_132:3 0.1648
5 net_132:3 net_132:4 0.1855
6 net_132:4 inst_90:A3 0.0112
7 net_132:4 net_132:5 0.1494
8 net_132:5 net_132:6 0.3290
9 net_132:6 inst_93:A3 0.1620
10 net_132:3 net_132:7 0.0279
11 net_132:7 net_132:8 0.4104
12 net_132:8 net_132:9 0.0649
13 net_132:9 net_132:10 0.0510
14 net_132:10 net_132:11 0.1600
15 net_132:11 inst_122:A2 0.1748
*END

*D_NET net_54 1.6599
*CONN
*I inst_45:ZN O
*I inst_51:A I
*CAP
1 inst_45:ZN 0.1076
2 net_54:1 0.3388
3 net_54:2 0.4657
4 net_54:3 0.3595
5 net_54:4 0.2471
6 net_54:5 0.0832
7 inst_51:A 0.0580
*RES
2 inst_45:ZN net_54:1 0.3736
3 net_54:1 net_54:2 0.0395
4 net_54:2 net_54:3 0.3644
5 net_54:3 net_54:4 0.0829
6 net_54:4 net_54:5 0.1977
7 net_54:5 inst_51:A 0.4694
*END

*D_NET n18 2.0853
*CONN
*I inst_19:Z O
*P n18 O
*CAP
1 inst_19:Z 0.3882
2 n18:1 0.0413
3 n18:2 0.4651
4 n18:3 0.4065
5 n18:4 0.3164
6 n18:5 0.3513
7 n18 0.1165
*RES
2 inst_19:Z n18:1 0.0986
3 n18:1 n18:2 0.2243
4 n18:2 n18:3 0.1286
5 n18:3 n18:4 0.4269
6 n18:4 n18:5 0.2482
7 n18:5 n18 0.2195
*END

*D_NET net_105 6.9410
*CONN
*I inst_168:ZN O
*I inst_211:A3 I
*I inst_206:A3 I
*I inst_171:A2 I
*I inst_89:A1 I
*I inst_117:A2 I
*CAP
1 inst_168:ZN 0.4091
2 net_105:1 0.3587
3 net_105:2 0.1869
4 net_105:3 0.4974
5 inst_206:A3 0.3047
6 net_105:4 0.2763
7 inst_211:A3 0.2945
8 net_105:5 0.1317
9 net_105:6 0.3617
10 net_105:7 0.0856
11 net_105:8 0.3629
12 inst_171:A2 0.2821
13 net_105:9 0.2907
14 net_105:10 0.0362
15 net_105:11 0.4966
16 net_105:12 0.4101
17 inst_89:A1 0.2702
18 net_105:13 0.2009
19 net_105:14 0.3114
20 net_105:15 0.3090
21 net_105:16 0.3972
22 net_105:17 0.4228
23 inst_117:A2 0.2443
*RES
2 inst_168:ZN net_105:1 0.1200
3 net_105:1 net_105:2 0.4969
4 net_105:2 net_105:3 0.1210
5 net_105:3 inst_206:A3 0.1733
6 net_105:1 net_105:4 0.3177
7 net_105:4 inst_211:A3 0.2101
8 net_105:2 net_105:5 0.3900
9 net_105:5 net_105:6 0.0557
10 net_105:6 net_105:7 0.1253
11 net_105:7 net_105:8 0.2716
12 net_105:8 inst_171:A2 0.3735
13 net_105:2 net_105:9 0.2135
14 net_105:9 net_105:10 0.0419
15 net_105:10 net_105:11 0.2773
16 net_105:11 net_105:12 0.0903
17 net_105:12 inst_89:A1 0.0485
18 net_105:12 net_105:13 0.2458
19 net_105:13 net_105:14 0.3734
20 net_105:14 net_105:15 0.1567
21 net_105:15 net_105:16 0.1247
22 net_105:16 net_105:17 0.2439
23 net_105:17 inst_117:A2 0.2588
*END

*D_NET net_62 0.9945
*CONN
*I inst_215:ZN O
*I inst_55:B I
*CAP
1 inst_215:ZN 0.3528
2 net_62:1 0.4436
3 inst_55:B 0.1981
*RES
2 inst_215:ZN net_62:1 0.3275
3 net_62:1 inst_55:B 0.0169
*END

*D_NET net_6 1.2825
*CONN
*I inst_1:Z O
*I inst_29:A I
*CAP
1 inst_1:Z 0.4684
2 net_6:1 0.0579
3 net_6:2 0.0423
4 net_6:3 0.2861
5 inst_29:A 0.4278
*RES
2 inst_1:Z net_6:1 0.3875
3 net_6:1 net_6:2 0.4796
4 net_6:2 net_6:3 0.3740
5 net_6:3 inst_29:A 0.1554
*END

*D_NET net_129 5.9771
*CONN
*I inst_211:ZN O
*I inst_175:A1 I
*I inst_177:A1 I
*I inst_176:A1 I
*I inst_178:A1 I
*CAP
1 inst_211:ZN 0.4380
2 net_129:1 0.4990
3 net_129:2 0.2134
4 net_129:3 0.1115
5 net_129:4 0.4947
6 net_129:5 0.3666
7 inst_175:A1 0.2854
8 net_129:6 0.1531
9 net_129:7 0.3886
10 net_129:8 0.2618
11 inst_177:A1 0.2468
12 net_129:9 0.2715
13 net_129:10 0.0199
14 net_129:11 0.4145
15 net_129:12 0.1459
16 net_129:13 0.1130
17 inst_176:A1 0.1026
18 net_129:14 0.3663
19 net_129:15 0.2540
20 net_129:16 0.0526
21 net_129:17 0.2388
22 net_129:18 0.1787
23 inst_178:A1 0.3603
*RES
2 inst_211:ZN net_129:1 0.4464
3 net_129:1 net_129:2 0.2438
4 net_129:2 net_129:3 0.2969
5 net_129:3 net_129:4 0.3091
6 net_129:4 net_129:5 0.5006
7 net_129:5 inst_175:A1 0.2264
8 net_129:5 net_129:6 0.4002
9 net_129:6 net_129:7 0.3652
10 net_129:7 net_129:8 0.1857
11 net_129:8 inst_177:A1 0.0562
12 net_129:1 net_129:9 0.1939
13 net_129:9 net_129:10 0.1095
14 net_129:10 net_129:11 0.0212
15 net_129:11 net_129:12 0.1417
16 net_129:12 net_129:13 0.2190
17 net_129:13 inst_176:A1 0.4826
18 net_129:3 net_129:14 0.0603
19 net_129:14 net_129:15 0.0863
20 net_129:15 net_129:16 0.3102
21 net_129:16 net_129:17 0.1239
22 net_129:17 net_129:18 0.2473
23 net_129:18 inst_178:A1 0.0055
*END

*D_NET net_119 2.5788
*CONN
*I inst_89:ZN O
*I inst_145:A1 I
*I inst_146:A1 I
*CAP
1 inst_89:ZN 0.2412
2 net_119:1 0.4441
3 net_119:2 0.4218
4 net_119:3 0.0848
5 net_119:4 0.0266
6 inst_146:A1 0.0274
7 net_119:5 0.4317
8 net_119:6 0.1801
9 net_119:7 0.2826
10 net_119:8 0.3420
11 inst_145:A1 0.0965
*RES
2 inst_89:ZN net_119:1 0.4218
3 net_119:1 net_119:2 0.2061
4 net_119:2 net_119:3 0.2110
5 net_119:3 net_119:4 0.4583
6 net_119:4 inst_146:A1 0.3985
7 net_119:3 net_119:5 0.2555
8 net_119:5 net_119:6 0.1304
9 net_119:6 net_119:7 0.3675
10 net_119:7 net_119:8 0.4634
11 net_119:8 inst_145:A1 0.2869
*END

*D_NET net_98 1.0783
*CONN
*I inst_169:ZN O
*I inst_178:A2 I
*I inst_120:A2 I
*CAP
1 inst_169:ZN 0.1182
2 net_98:1 0.0608
3 inst_178:A2 0.3721
4 net_98:2 0.0264
5 net_98:3 0.2502
6 inst_120:A2 0.2506
*RES
2 inst_169:ZN net_98:1 0.4648
3 net_98:1 inst_178:A2 0.2376
4 net_98:1 net_98:2 0.4486
5 net_98:2 net_98:3 0.0641
6 net_98:3 inst_120:A2 0.0138
*END

*D_NET net_23 0.7959
*CONN
*I inst_141:ZN O
*I inst_48:B I
*CAP
1 inst_141:ZN 0.0204
2 net_23:1 0.1001
3 net_23:2 0.2747
4 net_23:3 0.1704
5 inst_48:B 0.2303
*RES
2 inst_141:ZN net_23:1 0.0121
3 net_23:1 net_23:2 0.0620
4 net_23:2 net_23:3 0.0267
5 net_23:3 inst_48:B 0.1278
*END

*D_NET net_12 1.5058
*CONN
*I inst_5:Z O
*I inst_32:A I
*CAP
1 inst_5:Z 0.3621
2 net_12:1 0.3490
3 net_12:2 0.4751
4 inst_32:A 0.3195
*RES
2 inst_5:Z net_12:1 0.4748
3 net_12:1 net_12:2 0.2505
4 net_12:2 inst_32:A 0.2036
*END

*D_NET net_117 1.2849
*CONN
*I inst_137:ZN O
*I inst_208:A3 I
*CAP
1 inst_137:ZN 0.0185
2 net_117:1 0.2437
3 net_117:2 0.3641
4 net_117:3 0.1411
5 net_117:4 0.2452
6 inst_208:A3 0.2723
*RES
2 inst_137:ZN net_117:1 0.2079
3 net_117:1 net_117:2 0.2449
4 net_117:2 net_117:3 0.0406
5 net_117:3 net_117:4 0.0917
6 net_117:4 inst_208:A3 0.0078
*END

*D_NET net_74 1.7463
*CONN
*I inst_51:ZN O
*I inst_107:A2 I
*I inst_66:B I
*CAP
1 inst_51:ZN 0.0264
2 net_74:1 0.1906
3 inst_107:A2 0.1553
4 net_74:2 0.5008
5 net_74:3 0.2979
6 net_74:4 0.3428
7 inst_66:B 0.2325
*RES
2 inst_51:ZN net_74:1 0.0937
3 net_74:1 inst_107:A2 0.2944
4 net_74:1 net_74:2 0.2733
5 net_74:2 net_74:3 0.1266
6 net_74:3 net_74:4 0.3814
7 net_74:4 inst_66:B 0.1363
*END

*D_NET net_151 2.8128
*CONN
*I inst_177:ZN O
*I inst_139:A3 I
*I inst_60:B I
*CAP
1 inst_177:ZN 0.3144
2 net_151:1 0.3676
3 net_151:2 0.1603
4 net_151:3 0.4423
5 net_151:4 0.1159
6 net_151:5 0.4527
7 inst_60:B 0.1465
8 net_151:6 0.4367
9 net_151:7 0.3452
10 inst_139:A3 0.0313
*RES
2 inst_177:ZN net_151:1 0.1463
3 net_151:1 net_151:2 0.4621
4 net_151:2 net_151:3 0.4065
5 net_151:3 net_151:4 0.0227
6 net_151:4 net_151:5 0.2236
7 net_151:5 inst_60:B 0.4114
8 net_151:2 net_151:6 0.1217
9 net_151:6 net_151:7 0.0111
10 net_151:7 inst_139:A3 0.1222
*END

*D_NET net_53 4.7930
*CONN
*I inst_42:ZN O
*I inst_213:A2 I
*I inst_46:B I
*I inst_102:A2 I
*I inst_45:B I
*CAP
1 inst_42:ZN 0.1692
2 net_53:1 0.4978
3 net_53:2 0.2563
4 net_53:3 0.2595
5 net_53:4 0.2603
6 net_53:5 0.2874
7 inst_213:A2 0.3072
8 net_53:6 0.4796
9 net_53:7 0.3806
10 net_53:8 0.4946
11 inst_46:B 0.4608
12 net_53:9 0.4103
13 net_53:10 0.0845
14 inst_102:A2 0.1888
15 net_53:11 0.2069
16 inst_45:B 0.0491
*RES
2 inst_42:ZN net_53:1 0.2768
3 net_53:1 net_53:2 0.1679
4 net_53:2 net_53:3 0.2053
5 net_53:3 net_53:4 0.2140
6 net_53:4 net_53:5 0.3306
7 net_53:5 inst_213:A2 0.1569
8 net_53:3 net_53:6 0.4692
9 net_53:6 net_53:7 0.4766
10 net_53:7 net_53:8 0.0589
11 net_53:8 inst_46:B 0.0962
12 net_53:5 net_53:9 0.1436
13 net_53:9 net_53:10 0.1762
14 net_53:10 inst_102:A2 0.4748
15 net_53:2 net_53:11 0.4137
16 net_53:11 inst_45:B 0.3046
*END

*D_NET net_93 6.3642
*CONN
*I inst_109:ZN O
*I inst_80:A2 I
*I inst_89:A2 I
*I inst_207:A3 I
*I inst_138:A3 I
*I inst_218:A1 I
*CAP
1 inst_109:ZN 0.2640
2 net_93:1 0.4110
3 net_93:2 0.0191
4 inst_207:A3 0.3538
5 net_93:3 0.4025
6 net_93:4 0.5010
7 net_93:5 0.3538
8 inst_89:A2 0.4649
9 net_93:6 0.0616
10 net_93:7 0.4298
11 net_93:8 0.2857
12 net_93:9 0.2634
13 inst_80:A2 0.0470
14 net_93:10 0.3095
15 net_93:11 0.4895
16 net_93:12 0.4033
17 inst_138:A3 0.2734
18 net_93:13 0.0683
19 net_93:14 0.2135
20 net_93:15 0.4484
21 net_93:16 0.1379
22 net_93:17 0.1139
23 inst_218:A1 0.0489
*RES
2 inst_109:ZN net_93:1 0.4300
3 net_93:1 net_93:2 0.3629
4 net_93:2 inst_207:A3 0.0787
5 net_93:1 net_93:3 0.0482
6 net_93:3 net_93:4 0.1062
7 net_93:4 net_93:5 0.2963
8 net_93:5 inst_89:A2 0.4911
9 net_93:3 net_93:6 0.0745
10 net_93:6 net_93:7 0.1738
11 net_93:7 net_93:8 0.4336
12 net_93:8 net_93:9 0.4556
13 net_93:9 inst_80:A2 0.1284
14 net_93:3 net_93:10 0.3461
15 net_93:10 net_93:11 0.3729
16 net_93:11 net_93:12 0.0418
17 net_93:12 inst_138:A3 0.3671
18 net_93:3 net_93:13 0.0861
19 net_93:13 net_93:14 0.1477
20 net_93:14 net_93:15 0.4806
21 net_93:15 net_93:16 0.3473
22 net_93:16 net_93:17 0.1114
23 net_93:17 inst_218:A1 0.0198
*END

*D_NET n63 1.3546
*CONN
*I inst_130:ZN O
*P n63 O
*CAP
1 inst_130:ZN 0.1100
2 n63:1 0.3290
3 n63:2 0.1592
4 n63:3 0.4236
5 n63 0.3328
*RES
2 inst_130:ZN n63:1 0.1906
3 n63:1 n63:2 0.5003
4 n63:2 n63:3 0.4347
5 n63:3 n63 0.3044
*END

*D_NET net_168 1.5228
*CONN
*I inst_147:ZN O
*I inst_183:A2 I
*CAP
1 inst_147:ZN 0.0096
2 net_168:1 0.2377
3 net_168:2 0.2571
4 net_168:3 0.3610
5 net_168:4 0.0042
6 net_168:5 0.2690
7 inst_183:A2 0.3841
*RES
2 inst_147:ZN net_168:1 0.3400
3 net_168:1 net_168:2 0.2352
4 net_168:2 net_168:3 0.3112
5 net_168:3 net_168:4 0.1345
6 net_168:4 net_168:5 0.4134
7 net_168:5 inst_183:A2 0.0741
*END

*D_NET net_135 1.5369
*CONN
*I inst_165:ZN O
*I inst_92:A1 I
*I inst_91:A1 I
*CAP
1 inst_165:ZN 0.4891
2 net_135:1 0.2122
3 inst_91:A1 0.2034
4 net_135:2 0.0283
5 net_135:3 0.2644
6 inst_92:A1 0.3395
*RES
2 inst_165:ZN net_135:1 0.1253
3 net_135:1 inst_91:A1 0.2112
4 net_135:1 net_135:2 0.4160
5 net_135:2 net_135:3 0.1311
6 net_135:3 inst_92:A1 0.1702
*END

*D_NET n27 0.8144
*CONN
*I inst_56:ZN O
*P n27 O
*CAP
1 inst_56:ZN 0.0383
2 n27:1 0.2177
3 n27:2 0.0520
4 n27:3 0.1787
5 n27 0.3277
*RES
2 inst_56:ZN n27:1 0.2308
3 n27:1 n27:2 0.1825
4 n27:2 n27:3 0.4154
5 n27:3 n27 0.4205
*END

*D_NET net_130 2.1605
*CONN
*I inst_167:ZN O
*I inst_114:A2 I
*I inst_93:A2 I
*I inst_74:A3 I
*CAP
1 inst_167:ZN 0.3303
2 net_130:1 0.3450
3 inst_93:A2 0.2552
4 net_130:2 0.3448
5 net_130:3 0.2539
6 net_130:4 0.0169
7 inst_114:A2 0.2910
8 net_130:5 0.0258
9 net_130:6 0.0722
10 net_130:7 0.0268
11 net_130:8 0.0274
12 net_130:9 0.0955
13 inst_74:A3 0.0758
*RES
2 inst_167:ZN net_130:1 0.2397
3 net_130:1 inst_93:A2 0.3943
4 net_130:1 net_130:2 0.3418
5 net_130:2 net_130:3 0.0277
6 net_130:3 net_130:4 0.2232
7 net_130:4 inst_114:A2 0.0700
8 net_130:4 net_130:5 0.0730
9 net_130:5 net_130:6 0.2996
10 net_130:6 net_130:7 0.1500
11 net_130:7 net_130:8 0.2720
12 net_130:8 net_130:9 0.0605
13 net_130:9 inst_74:A3 0.1555
*END

*D_NET n113 3.2955
*CONN
*P n113 I
*I inst_20:B I
*I inst_5:B I
*I inst_29:B I
*CAP
1 n113 0.2976
2 n113:1 0.0316
3 n113:2 0.1823
4 n113:3 0.0755
5 n113:4 0.3163
6 inst_29:B 0.3515
7 n113:5 0.0188
8 n113:6 0.4709
9 n113:7 0.4204
10 n113:8 0.0122
11 inst_5:B 0.2688
12 n113:9 0.3150
13 n113:10 0.0137
14 n113:11 0.2108
15 inst_20:B 0.3101
*RES
2 n113 n113:1 0.2983
3 n113:1 n113:2 0.4269
4 n113:2 n113:3 0.0493
5 n113:3 n113:4 0.0341
6 n113:4 inst_29:B 0.3020
7 n113:4 n113:5 0.0936
8 n113:5 n113:6 0.3051
9 n113:6 n113:7 0.1197
10 n113:7 n113:8 0.2956
11 n113:8 inst_5:B 0.2210
12 n113:2 n113:9 0.0161
13 n113:9 n113:10 0.2047
14 n113:10 n113:11 0.3729
15 n113:11 inst_20:B 0.0610
*END

*D_NET net_147 3.5226
*CONN
*I inst_175:ZN O
*I inst_181:A2 I
*I inst_57:B I
*CAP
1 inst_175:ZN 0.2910
2 net_147:1 0.3083
3 net_147:2 0.1250
4 net_147:3 0.3526
5 net_147:4 0.3715
6 inst_57:B 0.3144
7 net_147:5 0.3118
8 net_147:6 0.4981
9 net_147:7 0.3134
10 net_147:8 0.4059
11 net_147:9 0.1396
12 inst_181:A2 0.0910
*RES
2 inst_175:ZN net_147:1 0.3618
3 net_147:1 net_147:2 0.0820
4 net_147:2 net_147:3 0.2174
5 net_147:3 net_147:4 0.3638
6 net_147:4 inst_57:B 0.4097
7 net_147:2 net_147:5 0.1278
8 net_147:5 net_147:6 0.3093
9 net_147:6 net_147:7 0.3342
10 net_147:7 net_147:8 0.2150
11 net_147:8 net_147:9 0.0109
12 net_147:9 inst_181:A2 0.1830
*END

*D_NET net_127 4.8860
*CONN
*I inst_78:ZN O
*I inst_122:A1 I
*I inst_91:A2 I
*I inst_89:A3 I
*I inst_116:A2 I
*CAP
1 inst_78:ZN 0.0712
2 net_127:1 0.1986
3 inst_91:A2 0.0476
4 net_127:2 0.2677
5 net_127:3 0.2426
6 net_127:4 0.1466
7 net_127:5 0.2784
8 net_127:6 0.2008
9 inst_122:A1 0.3776
10 net_127:7 0.3242
11 net_127:8 0.2336
12 net_127:9 0.3863
13 net_127:10 0.2365
14 inst_89:A3 0.1037
15 net_127:11 0.2417
16 net_127:12 0.2444
17 net_127:13 0.4262
18 net_127:14 0.3737
19 net_127:15 0.3015
20 inst_116:A2 0.1830
*RES
2 inst_78:ZN net_127:1 0.0521
3 net_127:1 inst_91:A2 0.0546
4 net_127:1 net_127:2 0.2937
5 net_127:2 net_127:3 0.0093
6 net_127:3 net_127:4 0.2822
7 net_127:4 net_127:5 0.4311
8 net_127:5 net_127:6 0.0309
9 net_127:6 inst_122:A1 0.1138
10 net_127:5 net_127:7 0.3572
11 net_127:7 net_127:8 0.2211
12 net_127:8 net_127:9 0.2185
13 net_127:9 net_127:10 0.2266
14 net_127:10 inst_89:A3 0.2538
15 net_127:2 net_127:11 0.3035
16 net_127:11 net_127:12 0.4053
17 net_127:12 net_127:13 0.0863
18 net_127:13 net_127:14 0.2362
19 net_127:14 net_127:15 0.1365
20 net_127:15 inst_116:A2 0.0277
*END

*D_NET net_14 13.2472
*CONN
*P n902 I
*I inst_215:A1 I
*I inst_156:A2 I
*I inst_150:A1 I
*I inst_148:A1 I
*I inst_142:A2 I
*I inst_151:A1 I
*I inst_107:A1 I
*I inst_108:A1 I
*I inst_104:A1 I
*I inst_88:A2 I
*I inst_87:A2 I
*I inst_185:A1 I
*I inst_75:A2 I
*I inst_149:A1 I
*CAP
1 n902 0.2912
2 net_14:1 0.3711
3 net_14:2 0.0512
4 inst_185:A1 0.1351
5 net_14:3 0.1146
6 net_14:4 0.3234
7 inst_156:A2 0.4610
8 net_14:5 0.3877
9 inst_150:A1 0.1588
10 net_14:6 0.2164
11 net_14:7 0.4372
12 net_14:8 0.1158
13 inst_148:A1 0.1153
14 net_14:9 0.2382
15 net_14:10 0.4109
16 net_14:11 0.0945
17 net_14:12 0.2326
18 inst_142:A2 0.0121
19 net_14:13 0.4392
20 net_14:14 0.4048
21 net_14:15 0.0368
22 net_14:16 0.3283
23 inst_151:A1 0.2266
24 net_14:17 0.2966
25 net_14:18 0.3013
26 net_14:19 0.0758
27 inst_107:A1 0.0262
28 net_14:20 0.3805
29 net_14:21 0.2523
30 net_14:22 0.0497
31 inst_108:A1 0.4938
32 net_14:23 0.2454
33 net_14:24 0.4527
34 net_14:25 0.2663
35 net_14:26 0.3641
36 net_14:27 0.1740
37 inst_104:A1 0.2701
38 net_14:28 0.1227
39 inst_88:A2 0.0294
40 net_14:29 0.4010
41 net_14:30 0.3573
42 inst_87:A2 0.4559
43 net_14:31 0.1762
44 net_14:32 0.1166
45 net_14:33 0.1660
46 inst_215:A1 0.2177
47 net_14:34 0.0675
48 net_14:35 0.0053
49 inst_75:A2 0.1459
50 net_14:36 0.4574
51 net_14:37 0.4683
52 net_14:38 0.1543
53 net_14:39 0.4873
54 inst_149:A1 0.1669
*RES
2 n902 net_14:1 0.0984
3 net_14:1 net_14:2 0.0368
4 net_14:2 inst_185:A1 0.4376
5 net_14:1 net_14:3 0.4832
6 net_14:3 net_14:4 0.2776
7 net_14:4 inst_156:A2 0.3781
8 net_14:4 net_14:5 0.3738
9 net_14:5 inst_150:A1 0.4556
10 net_14:3 net_14:6 0.3810
11 net_14:6 net_14:7 0.1100
12 net_14:7 net_14:8 0.1662
13 net_14:8 inst_148:A1 0.3178
14 net_14:2 net_14:9 0.2674
15 net_14:9 net_14:10 0.2072
16 net_14:10 net_14:11 0.0414
17 net_14:11 net_14:12 0.2455
18 net_14:12 inst_142:A2 0.1970
19 net_14:12 net_14:13 0.4199
20 net_14:13 net_14:14 0.3736
21 net_14:14 net_14:15 0.3306
22 net_14:15 net_14:16 0.3042
23 net_14:16 inst_151:A1 0.1317
24 net_14:8 net_14:17 0.3812
25 net_14:17 net_14:18 0.0656
26 net_14:18 net_14:19 0.1550
27 net_14:19 inst_107:A1 0.0047
28 net_14:5 net_14:20 0.3913
29 net_14:20 net_14:21 0.2131
30 net_14:21 net_14:22 0.3201
31 net_14:22 inst_108:A1 0.0320
32 net_14:15 net_14:23 0.3351
33 net_14:23 net_14:24 0.4105
34 net_14:24 net_14:25 0.3004
35 net_14:25 net_14:26 0.3665
36 net_14:26 net_14:27 0.1341
37 net_14:27 inst_104:A1 0.0859
38 net_14:21 net_14:28 0.0059
39 net_14:28 inst_88:A2 0.3552
40 net_14:22 net_14:29 0.3575
41 net_14:29 net_14:30 0.1715
42 net_14:30 inst_87:A2 0.3050
43 net_14:29 net_14:31 0.2908
44 net_14:31 net_14:32 0.3318
45 net_14:32 net_14:33 0.3308
46 net_14:33 inst_215:A1 0.4080
47 net_14:31 net_14:34 0.0437
48 net_14:34 net_14:35 0.4598
49 net_14:35 inst_75:A2 0.3838
50 net_14:14 net_14:36 0.4800
51 net_14:36 net_14:37 0.4518
52 net_14:37 net_14:38 0.0570
53 net_14:38 net_14:39 0.4909
54 net_14:39 inst_149:A1 0.0572
*END

*D_NET n146 3.7948
*CONN
*P n146 I
*I inst_9:A I
*I inst_61:A I
*I inst_10:A I
*CAP
1 n146 0.1013
2 n146:1 0.4210
3 n146:2 0.2594
4 n146:3 0.3565
5 inst_10:A 0.4074
6 n146:4 0.3870
7 n146:5 0.3663
8 n146:6 0.1512
9 n146:7 0.1368
10 inst_61:A 0.4493
11 n146:8 0.3075
12 n146:9 0.0604
13 inst_9:A 0.3908
*RES
2 n146 n146:1 0.4309
3 n146:1 n146:2 0.4474
4 n146:2 n146:3 0.2931
5 n146:3 inst_10:A 0.2848
6 n146:2 n146:4 0.4663
7 n146:4 n146:5 0.2866
8 n146:5 n146:6 0.1873
9 n146:6 n146:7 0.1599
10 n146:7 inst_61:A 0.3589
11 n146:4 n146:8 0.2921
12 n146:8 n146:9 0.4162
13 n146:9 inst_9:A 0.1285
*END

*D_NET net_26 1.1235
*CONN
*I inst_85:ZN O
*I inst_38:A I
*CAP
1 inst_85:ZN 0.3511
2 net_26:1 0.3010
3 net_26:2 0.1515
4 net_26:3 0.0492
5 inst_38:A 0.2707
*RES
2 inst_85:ZN net_26:1 0.0711
3 net_26:1 net_26:2 0.2365
4 net_26:2 net_26:3 0.0021
5 net_26:3 inst_38:A 0.2080
*END

*D_NET net_76 2.0999
*CONN
*I inst_88:ZN O
*I inst_17:B I
*CAP
1 inst_88:ZN 0.4886
2 net_76:1 0.4404
3 net_76:2 0.3187
4 net_76:3 0.4272
5 net_76:4 0.0224
6 inst_17:B 0.4026
*RES
2 inst_88:ZN net_76:1 0.2784
3 net_76:1 net_76:2 0.1803
4 net_76:2 net_76:3 0.0882
5 net_76:3 net_76:4 0.2924
6 net_76:4 inst_17:B 0.4780
*END

*D_NET n128 3.8184
*CONN
*P n128 I
*I inst_2:A I
*I inst_8:B I
*I inst_62:A I
*I inst_36:B I
*CAP
1 n128 0.1182
2 n128:1 0.1530
3 n128:2 0.2582
4 n128:3 0.4484
5 inst_62:A 0.0762
6 n128:4 0.4880
7 n128:5 0.4169
8 n128:6 0.3167
9 n128:7 0.3376
10 inst_8:B 0.1073
11 n128:8 0.1251
12 n128:9 0.0048
13 n128:10 0.3126
14 n128:11 0.0195
15 inst_2:A 0.0541
16 n128:12 0.4904
17 inst_36:B 0.0915
*RES
2 n128 n128:1 0.1986
3 n128:1 n128:2 0.3922
4 n128:2 n128:3 0.3950
5 n128:3 inst_62:A 0.2666
6 n128:2 n128:4 0.3579
7 n128:4 n128:5 0.1300
8 n128:5 n128:6 0.3795
9 n128:6 n128:7 0.2362
10 n128:7 inst_8:B 0.1908
11 n128:3 n128:8 0.3700
12 n128:8 n128:9 0.3260
13 n128:9 n128:10 0.3466
14 n128:10 n128:11 0.4948
15 n128:11 inst_2:A 0.4038
16 n128:4 n128:12 0.4619
17 n128:12 inst_36:B 0.1065
*END

*D_NET n101 2.8401
*CONN
*P n101 I
*I inst_38:B I
*I inst_22:B I
*I inst_34:B I
*CAP
1 n101 0.2576
2 n101:1 0.2231
3 inst_22:B 0.2934
4 n101:2 0.1980
5 inst_38:B 0.3226
6 n101:3 0.4631
7 n101:4 0.0407
8 n101:5 0.4130
9 n101:6 0.3462
10 n101:7 0.0714
11 inst_34:B 0.2110
*RES
2 n101 n101:1 0.0661
3 n101:1 inst_22:B 0.0281
4 n101:1 n101:2 0.1282
5 n101:2 inst_38:B 0.2766
6 n101:2 n101:3 0.2588
7 n101:3 n101:4 0.0339
8 n101:4 n101:5 0.0519
9 n101:5 n101:6 0.4874
10 n101:6 n101:7 0.0374
11 n101:7 inst_34:B 0.2489
*END

*D_NET net_32 1.1295
*CONN
*I inst_101:ZN O
*I inst_77:A2 I
*CAP
1 inst_101:ZN 0.0346
2 net_32:1 0.0645
3 net_32:2 0.3416
4 net_32:3 0.4099
5 net_32:4 0.1540
6 net_32:5 0.0325
7 inst_77:A2 0.0924
*RES
2 inst_101:ZN net_32:1 0.1850
3 net_32:1 net_32:2 0.1516
4 net_32:2 net_32:3 0.2746
5 net_32:3 net_32:4 0.4228
6 net_32:4 net_32:5 0.1417
7 net_32:5 inst_77:A2 0.3754
*END

*D_NET net_187 0.9794
*CONN
*I inst_66:ZN O
*I inst_131:A2 I
*CAP
1 inst_66:ZN 0.0068
2 net_187:1 0.4220
3 net_187:2 0.4926
4 inst_131:A2 0.0580
*RES
2 inst_66:ZN net_187:1 0.3810
3 net_187:1 net_187:2 0.2195
4 net_187:2 inst_131:A2 0.2042
*END

*D_NET net_111 1.5343
*CONN
*I inst_118:ZN O
*I inst_138:A1 I
*CAP
1 inst_118:ZN 0.2656
2 net_111:1 0.1336
3 net_111:2 0.4042
4 net_111:3 0.0451
5 net_111:4 0.2391
6 net_111:5 0.0321
7 inst_138:A1 0.4146
*RES
2 inst_118:ZN net_111:1 0.0857
3 net_111:1 net_111:2 0.2654
4 net_111:2 net_111:3 0.2245
5 net_111:3 net_111:4 0.4797
6 net_111:4 net_111:5 0.0551
7 net_111:5 inst_138:A1 0.1877
*END

*D_NET net_40 0.9500
*CONN
*I inst_39:ZN O
*I inst_43:A I
*CAP
1 inst_39:ZN 0.4235
2 net_40:1 0.2143
3 net_40:2 0.0701
4 inst_43:A 0.2421
*RES
2 inst_39:ZN net_40:1 0.4634
3 net_40:1 net_40:2 0.2497
4 net_40:2 inst_43:A 0.2766
*END

*D_NET n116 4.6700
*CONN
*P n116 I
*I inst_19:B I
*I inst_1:B I
*I inst_0:B I
*CAP
1 n116 0.2353
2 n116:1 0.0722
3 n116:2 0.3539
4 n116:3 0.3446
5 n116:4 0.0192
6 n116:5 0.1341
7 inst_1:B 0.4054
8 n116:6 0.1374
9 n116:7 0.1713
10 n116:8 0.2153
11 n116:9 0.3119
12 n116:10 0.4918
13 inst_19:B 0.3583
14 n116:11 0.4721
15 n116:12 0.1185
16 n116:13 0.4585
17 inst_0:B 0.3703
*RES
2 n116 n116:1 0.3681
3 n116:1 n116:2 0.4419
4 n116:2 n116:3 0.1561
5 n116:3 n116:4 0.1347
6 n116:4 n116:5 0.0224
7 n116:5 inst_1:B 0.3933
8 n116:3 n116:6 0.0251
9 n116:6 n116:7 0.0071
10 n116:7 n116:8 0.2242
11 n116:8 n116:9 0.4834
12 n116:9 n116:10 0.4589
13 n116:10 inst_19:B 0.0098
14 n116:7 n116:11 0.0365
15 n116:11 n116:12 0.4409
16 n116:12 n116:13 0.4335
17 n116:13 inst_0:B 0.3158
*END

*D_NET net_100 5.9316
*CONN
*I inst_17:Z O
*I inst_138:A4 I
*I inst_136:A4 I
*I inst_168:A2 I
*I inst_113:A2 I
*CAP
1 inst_17:Z 0.4798
2 net_100:1 0.1778
3 net_100:2 0.3155
4 inst_168:A2 0.4909
5 net_100:3 0.1815
6 net_100:4 0.2112
7 net_100:5 0.3238
8 net_100:6 0.1536
9 inst_136:A4 0.2744
10 net_100:7 0.4392
11 net_100:8 0.4660
12 net_100:9 0.3296
13 net_100:10 0.2711
14 net_100:11 0.1177
15 inst_138:A4 0.1130
16 net_100:12 0.2000
17 net_100:13 0.4330
18 net_100:14 0.3792
19 net_100:15 0.3945
20 net_100:16 0.1168
21 inst_113:A2 0.0632
*RES
2 inst_17:Z net_100:1 0.2285
3 net_100:1 net_100:2 0.2293
4 net_100:2 inst_168:A2 0.4514
5 net_100:1 net_100:3 0.3973
6 net_100:3 net_100:4 0.0682
7 net_100:4 net_100:5 0.0813
8 net_100:5 net_100:6 0.2235
9 net_100:6 inst_136:A4 0.0018
10 net_100:3 net_100:7 0.0719
11 net_100:7 net_100:8 0.2913
12 net_100:8 net_100:9 0.3837
13 net_100:9 net_100:10 0.4308
14 net_100:10 net_100:11 0.4593
15 net_100:11 inst_138:A4 0.4578
16 net_100:3 net_100:12 0.3389
17 net_100:12 net_100:13 0.2267
18 net_100:13 net_100:14 0.0022
19 net_100:14 net_100:15 0.3986
20 net_100:15 net_100:16 0.0342
21 net_100:16 inst_113:A2 0.1492
*END

*D_NET n475 2.3530
*CONN
*P n475 I
*I inst_16:B I
*I inst_149:A2 I
*CAP
1 n475 0.2299
2 n475:1 0.0789
3 n475:2 0.1418
4 n475:3 0.2162
5 n475:4 0.3480
6 n475:5 0.3423
7 inst_16:B 0.3091
8 n475:6 0.2194
9 n475:7 0.0694
10 n475:8 0.1731
11 n475:9 0.0340
12 inst_149:A2 0.1910
*RES
2 n475 n475:1 0.3077
3 n475:1 n475:2 0.0259
4 n475:2 n475:3 0.3818
5 n475:3 n475:4 0.2326
6 n475:4 n475:5 0.3632
7 n475:5 inst_16:B 0.2277
8 n475:1 n475:6 0.0233
9 n475:6 n475:7 0.1519
10 n475:7 n475:8 0.4158
11 n475:8 n475:9 0.0326
12 n475:9 inst_149:A2 0.2788
*END

*D_NET net_69 3.3508
*CONN
*I inst_49:ZN O
*I inst_52:A I
*I inst_216:A1 I
*I inst_106:A1 I
*CAP
1 inst_49:ZN 0.0975
2 net_69:1 0.3850
3 net_69:2 0.2235
4 inst_216:A1 0.2530
5 net_69:3 0.3040
6 net_69:4 0.3068
7 net_69:5 0.1313
8 net_69:6 0.0490
9 inst_52:A 0.1490
10 net_69:7 0.4065
11 net_69:8 0.3838
12 net_69:9 0.2328
13 net_69:10 0.0616
14 inst_106:A1 0.3670
*RES
2 inst_49:ZN net_69:1 0.0538
3 net_69:1 net_69:2 0.1085
4 net_69:2 inst_216:A1 0.3839
5 net_69:1 net_69:3 0.4082
6 net_69:3 net_69:4 0.0586
7 net_69:4 net_69:5 0.2553
8 net_69:5 net_69:6 0.4766
9 net_69:6 inst_52:A 0.4662
10 net_69:2 net_69:7 0.3852
11 net_69:7 net_69:8 0.1467
12 net_69:8 net_69:9 0.2409
13 net_69:9 net_69:10 0.4071
14 net_69:10 inst_106:A1 0.2078
*END

*D_NET net_85 3.6140
*CONN
*I inst_14:Z O
*I inst_167:A2 I
*I inst_136:A3 I
*I inst_111:A2 I
*I inst_164:A2 I
*I inst_78:A2 I
*CAP
1 inst_14:Z 0.2212
2 net_85:1 0.1904
3 inst_136:A3 0.2527
4 net_85:2 0.0062
5 net_85:3 0.2799
6 net_85:4 0.1542
7 net_85:5 0.1497
8 inst_167:A2 0.2415
9 net_85:6 0.1204
10 net_85:7 0.0927
11 net_85:8 0.1679
12 net_85:9 0.0593
13 inst_111:A2 0.3745
14 net_85:10 0.1359
15 net_85:11 0.3553
16 inst_164:A2 0.1500
17 net_85:12 0.1724
18 net_85:13 0.0056
19 net_85:14 0.0020
20 net_85:15 0.0117
21 net_85:16 0.2437
22 inst_78:A2 0.2268
*RES
2 inst_14:Z net_85:1 0.0491
3 net_85:1 inst_136:A3 0.0298
4 net_85:1 net_85:2 0.4946
5 net_85:2 net_85:3 0.2980
6 net_85:3 net_85:4 0.1661
7 net_85:4 net_85:5 0.4120
8 net_85:5 inst_167:A2 0.1627
9 net_85:4 net_85:6 0.1708
10 net_85:6 net_85:7 0.0756
11 net_85:7 net_85:8 0.2634
12 net_85:8 net_85:9 0.4707
13 net_85:9 inst_111:A2 0.4356
14 net_85:9 net_85:10 0.4264
15 net_85:10 net_85:11 0.0163
16 net_85:11 inst_164:A2 0.2331
17 net_85:11 net_85:12 0.2690
18 net_85:12 net_85:13 0.0296
19 net_85:13 net_85:14 0.2418
20 net_85:14 net_85:15 0.1876
21 net_85:15 net_85:16 0.0595
22 net_85:16 inst_78:A2 0.2550
*END

*D_NET net_124 2.7254
*CONN
*I inst_171:ZN O
*I inst_74:A2 I
*I inst_73:A1 I
*CAP
1 inst_171:ZN 0.3006
2 net_124:1 0.2194
3 net_124:2 0.1135
4 net_124:3 0.4544
5 inst_73:A1 0.4819
6 net_124:4 0.3957
7 net_124:5 0.3077
8 inst_74:A2 0.4522
*RES
2 inst_171:ZN net_124:1 0.3078
3 net_124:1 net_124:2 0.3570
4 net_124:2 net_124:3 0.3670
5 net_124:3 inst_73:A1 0.0788
6 net_124:2 net_124:4 0.3100
7 net_124:4 net_124:5 0.1824
8 net_124:5 inst_74:A2 0.4992
*END

*D_NET net_161 2.0563
*CONN
*I inst_82:ZN O
*I inst_147:A3 I
*I inst_212:A3 I
*CAP
1 inst_82:ZN 0.1667
2 net_161:1 0.1120
3 net_161:2 0.0039
4 net_161:3 0.4142
5 net_161:4 0.1371
6 net_161:5 0.2330
7 inst_212:A3 0.4566
8 net_161:6 0.0662
9 inst_147:A3 0.4666
*RES
2 inst_82:ZN net_161:1 0.2890
3 net_161:1 net_161:2 0.4585
4 net_161:2 net_161:3 0.4359
5 net_161:3 net_161:4 0.0471
6 net_161:4 net_161:5 0.4771
7 net_161:5 inst_212:A3 0.1294
8 net_161:1 net_161:6 0.1226
9 net_161:6 inst_147:A3 0.1952
*END

*D_NET n119 3.9325
*CONN
*P n119 I
*I inst_2:B I
*I inst_1:A I
*I inst_18:B I
*CAP
1 n119 0.2411
2 n119:1 0.1596
3 n119:2 0.2815
4 n119:3 0.2732
5 n119:4 0.4508
6 inst_1:A 0.0764
7 n119:5 0.2826
8 n119:6 0.4852