*SPEF "IEEE 1481-1998"
*DESIGN "changes"
*DATE "Tue Dec 02 20:38:31 2014"
*VENDOR "TAU 2015 Contest"
*PROGRAM "Benchmark Parasitic Generator"
*VERSION "0.0"
*DESIGN_FLOW "NETLIST_TYPE_VERILOG"
*DIVIDER /
*DELIMITER :
*BUS_DELIMITER [ ]
*T_UNIT 1 PS
*C_UNIT 1 FF
*R_UNIT 1 KOHM
*L_UNIT 1 UH

*D_NET TAUNET_13 1.7439
*CONN
*I inst_151:ZN O
*I TAUGATE_13:A I
*CAP
1 inst_151:ZN 0.2611
2 TAUNET_13:1 0.4098
3 TAUNET_13:2 0.5009
4 TAUNET_13:3 0.2843
5 TAUGATE_13:A 0.2878
*RES
2 inst_151:ZN TAUNET_13:1 0.1659
3 TAUNET_13:1 TAUNET_13:2 0.2742
4 TAUNET_13:2 TAUNET_13:3 0.3494
5 TAUNET_13:3 TAUGATE_13:A 0.1485
*END

*D_NET TAUNET_12 1.3760
*CONN
*I inst_18:Z O
*I TAUGATE_12:A I
*CAP
1 inst_18:Z 0.2110
2 TAUNET_12:1 0.3070
3 TAUNET_12:2 0.3583
4 TAUNET_12:3 0.1395
5 TAUNET_12:4 0.0646
6 TAUNET_12:5 0.0794
7 TAUGATE_12:A 0.2161
*RES
2 inst_18:Z TAUNET_12:1 0.1614
3 TAUNET_12:1 TAUNET_12:2 0.3312
4 TAUNET_12:2 TAUNET_12:3 0.3755
5 TAUNET_12:3 TAUNET_12:4 0.4644
6 TAUNET_12:4 TAUNET_12:5 0.4559
7 TAUNET_12:5 TAUGATE_12:A 0.4050
*END

*D_NET net_166 1.9117
*CONN
*I TAUGATE_28:Z O
*I inst_95:A1 I
*I inst_96:A2 I
*CAP
1 TAUGATE_28:Z 0.1670
2 net_166:1 0.2440
3 net_166:2 0.0332
4 inst_95:A1 0.0406
5 net_166:3 0.3706
6 net_166:4 0.0740
7 net_166:5 0.4871
8 inst_96:A2 0.4951
*RES
2 TAUGATE_28:Z net_166:1 0.2732
3 net_166:1 net_166:2 0.0073
4 net_166:2 inst_95:A1 0.1308
5 net_166:1 net_166:3 0.4125
6 net_166:3 net_166:4 0.0565
7 net_166:4 net_166:5 0.1285
8 net_166:5 inst_96:A2 0.0292
*END

*D_NET net_176 2.3577
*CONN
*I TAUGATE_51:Z O
*I inst_64:B I
*CAP
1 TAUGATE_51:Z 0.4507
2 net_176:1 0.3995
3 net_176:2 0.3845
4 net_176:3 0.4708
5 net_176:4 0.3056
6 inst_64:B 0.3464
*RES
2 TAUGATE_51:Z net_176:1 0.0305
3 net_176:1 net_176:2 0.2383
4 net_176:2 net_176:3 0.4020
5 net_176:3 net_176:4 0.2529
6 net_176:4 inst_64:B 0.2665
*END

*D_NET net_175 0.9086
*CONN
*I TAUGATE_27:Z O
*I inst_83:A4 I
*CAP
1 TAUGATE_27:Z 0.1977
2 net_175:1 0.3276
3 inst_83:A4 0.3833
*RES
2 TAUGATE_27:Z net_175:1 0.3292
3 net_175:1 inst_83:A4 0.0716
*END

*D_NET TAUNET_35 1.3846
*CONN
*I inst_100:ZN O
*I TAUGATE_35:A I
*CAP
1 inst_100:ZN 0.1922
2 TAUNET_35:1 0.1322
3 TAUNET_35:2 0.1905
4 TAUNET_35:3 0.4017
5 TAUGATE_35:A 0.4680
*RES
2 inst_100:ZN TAUNET_35:1 0.2976
3 TAUNET_35:1 TAUNET_35:2 0.2331
4 TAUNET_35:2 TAUNET_35:3 0.2927
5 TAUNET_35:3 TAUGATE_35:A 0.3943
*END

*D_NET net_98 1.0845
*CONN
*I TAUGATE_17:Z O
*I inst_178:A2 I
*CAP
1 TAUGATE_17:Z 0.1955
2 net_98:1 0.4889
3 net_98:2 0.0703
4 inst_178:A2 0.3298
*RES
2 TAUGATE_17:Z net_98:1 0.4131
3 net_98:1 net_98:2 0.3310
4 net_98:2 inst_178:A2 0.2621
*END

*D_NET n42 0.9833
*CONN
*I TAUGATE_33:Z O
*P n42 O
*CAP
1 TAUGATE_33:Z 0.1808
2 n42:1 0.3990
3 n42 0.4035
*RES
2 TAUGATE_33:Z n42:1 0.0219
3 n42:1 n42 0.0830
*END

*D_NET net_148 3.2416
*CONN
*I TAUGATE_32:Z O
*I inst_181:A1 I
*I inst_58:B I
*CAP
1 TAUGATE_32:Z 0.1250
2 net_148:1 0.4976
3 net_148:2 0.3591
4 net_148:3 0.2780
5 net_148:4 0.2022
6 inst_58:B 0.1593
7 net_148:5 0.0632
8 net_148:6 0.2503
9 net_148:7 0.4700
10 net_148:8 0.3789
11 net_148:9 0.3545
12 inst_181:A1 0.1033
*RES
2 TAUGATE_32:Z net_148:1 0.4382
3 net_148:1 net_148:2 0.3498
4 net_148:2 net_148:3 0.4055
5 net_148:3 net_148:4 0.4519
6 net_148:4 inst_58:B 0.4658
7 net_148:4 net_148:5 0.4316
8 net_148:5 net_148:6 0.1782
9 net_148:6 net_148:7 0.4734
10 net_148:7 net_148:8 0.0376
11 net_148:8 net_148:9 0.0972
12 net_148:9 inst_181:A1 0.3594
*END

*D_NET TAUNET_46 1.4515
*CONN
*I inst_96:ZN O
*I TAUGATE_46:A I
*CAP
1 inst_96:ZN 0.3248
2 TAUNET_46:1 0.1267
3 TAUNET_46:2 0.3840
4 TAUNET_46:3 0.2434
5 TAUGATE_46:A 0.3726
*RES
2 inst_96:ZN TAUNET_46:1 0.2980
3 TAUNET_46:1 TAUNET_46:2 0.2454
4 TAUNET_46:2 TAUNET_46:3 0.4670
5 TAUNET_46:3 TAUGATE_46:A 0.1921
*END

*D_NET n63 0.9538
*CONN
*I TAUGATE_22:Z O
*P n63 O
*CAP
1 TAUGATE_22:Z 0.4443
2 n63:1 0.3022
3 n63:2 0.1405
4 n63 0.0668
*RES
2 TAUGATE_22:Z n63:1 0.3699
3 n63:1 n63:2 0.4131
4 n63:2 n63 0.4004
*END

*D_NET net_122 0.9952
*CONN
*I TAUGATE_52:Z O
*I inst_209:A4 I
*CAP
1 TAUGATE_52:Z 0.1341
2 net_122:1 0.0282
3 net_122:2 0.3089
4 net_122:3 0.0253
5 net_122:4 0.3105
6 inst_209:A4 0.1881
*RES
2 TAUGATE_52:Z net_122:1 0.2034
3 net_122:1 net_122:2 0.1592
4 net_122:2 net_122:3 0.3147
5 net_122:3 net_122:4 0.2761
6 net_122:4 inst_209:A4 0.3643
*END

*D_NET net_25 1.2795
*CONN
*I TAUGATE_50:Z O
*I inst_11:B I
*CAP
1 TAUGATE_50:Z 0.0666
2 net_25:1 0.3580
3 net_25:2 0.3774
4 net_25:3 0.2731
5 net_25:4 0.1525
6 inst_11:B 0.0518
*RES
2 TAUGATE_50:Z net_25:1 0.2548
3 net_25:1 net_25:2 0.2154
4 net_25:2 net_25:3 0.4921
5 net_25:3 net_25:4 0.1648
6 net_25:4 inst_11:B 0.1855
*END

*D_NET TAUNET_24 1.0916
*CONN
*I inst_111:ZN O
*I TAUGATE_24:A I
*CAP
1 inst_111:ZN 0.3530
2 TAUNET_24:1 0.2239
3 TAUNET_24:2 0.0917
4 TAUGATE_24:A 0.4230
*RES
2 inst_111:ZN TAUNET_24:1 0.1494
3 TAUNET_24:1 TAUNET_24:2 0.3290
4 TAUNET_24:2 TAUGATE_24:A 0.1620
*END

*D_NET TAUNET_16 1.1549
*CONN
*I inst_187:ZN O
*I TAUGATE_16:A I
*CAP
1 inst_187:ZN 0.2883
2 TAUNET_16:1 0.4381
3 TAUNET_16:2 0.3484
4 TAUGATE_16:A 0.0801
*RES
2 inst_187:ZN TAUNET_16:1 0.1392
3 TAUNET_16:1 TAUNET_16:2 0.1891
4 TAUNET_16:2 TAUGATE_16:A 0.0464
*END

*D_NET net_70 1.0649
*CONN
*I TAUGATE_18:Z O
*I inst_88:A1 I
*CAP
1 TAUGATE_18:Z 0.0279
2 net_70:1 0.0649
3 net_70:2 0.0510
4 net_70:3 0.1600
5 net_70:4 0.1748
6 net_70:5 0.4787
7 inst_88:A1 0.1076
*RES
2 TAUGATE_18:Z net_70:1 0.4606
3 net_70:1 net_70:2 0.3388
4 net_70:2 net_70:3 0.4657
5 net_70:3 net_70:4 0.3595
6 net_70:4 net_70:5 0.2471
7 net_70:5 inst_88:A1 0.0832
*END

*D_NET TAUNET_31 0.8209
*CONN
*I inst_157:ZN O
*I TAUGATE_31:A I
*CAP
1 inst_157:ZN 0.3736
2 TAUNET_31:1 0.3644
3 TAUGATE_31:A 0.0829
*RES
2 inst_157:ZN TAUNET_31:1 0.1977
3 TAUNET_31:1 TAUGATE_31:A 0.4694
*END

*D_NET n140 5.0401
*CONN
*I TAUGATE_53:Z O
*I inst_57:A I
*I inst_4:A I
*I inst_7:A I
*CAP
1 TAUGATE_53:Z 0.3882
2 n140:1 0.0413
3 n140:2 0.4651
4 n140:3 0.4065
5 n140:4 0.3164
6 n140:5 0.3513
7 inst_7:A 0.1165
8 n140:6 0.2613
9 n140:7 0.3587
10 n140:8 0.1869
11 n140:9 0.4974
12 n140:10 0.3047
13 inst_4:A 0.1200
14 n140:11 0.2101
15 n140:12 0.3390
16 n140:13 0.2046
17 n140:14 0.3404
18 inst_57:A 0.1317
*RES
2 TAUGATE_53:Z n140:1 0.0986
3 n140:1 n140:2 0.2243
4 n140:2 n140:3 0.1286
5 n140:3 n140:4 0.4269
6 n140:4 n140:5 0.2482
7 n140:5 inst_7:A 0.2195
8 n140:2 n140:6 0.4969
9 n140:6 n140:7 0.1210
10 n140:7 n140:8 0.1733
11 n140:8 n140:9 0.1014
12 n140:9 n140:10 0.0283
13 n140:10 inst_4:A 0.2763
14 n140:6 n140:11 0.3617
15 n140:11 n140:12 0.0856
16 n140:12 n140:13 0.3629
17 n140:13 n140:14 0.2821
18 n140:14 inst_57:A 0.3900
*END

*D_NET TAUNET_25 1.2298
*CONN
*I inst_108:ZN O
*I TAUGATE_25:A I
*CAP
1 inst_108:ZN 0.1253
2 TAUNET_25:1 0.3735
3 TAUNET_25:2 0.1079
4 TAUNET_25:3 0.3323
5 TAUGATE_25:A 0.2907
*RES
2 inst_108:ZN TAUNET_25:1 0.0362
3 TAUNET_25:1 TAUNET_25:2 0.4966
4 TAUNET_25:2 TAUNET_25:3 0.4101
5 TAUNET_25:3 TAUGATE_25:A 0.2702
*END

*D_NET TAUNET_27 1.0671
*CONN
*I inst_140:ZN O
*I TAUGATE_27:A I
*CAP
1 inst_140:ZN 0.0419
2 TAUNET_27:1 0.0903
3 TAUNET_27:2 0.0485
4 TAUNET_27:3 0.4602
5 TAUGATE_27:A 0.4262
*RES
2 inst_140:ZN TAUNET_27:1 0.2009
3 TAUNET_27:1 TAUNET_27:2 0.3114
4 TAUNET_27:2 TAUNET_27:3 0.3090
5 TAUNET_27:3 TAUGATE_27:A 0.3972
*END

*D_NET TAUNET_28 1.1430
*CONN
*I inst_181:ZN O
*I TAUGATE_28:A I
*CAP
1 inst_181:ZN 0.2443
2 TAUNET_28:1 0.3734
3 TAUNET_28:2 0.1567
4 TAUNET_28:3 0.1247
5 TAUGATE_28:A 0.2439
*RES
2 inst_181:ZN TAUNET_28:1 0.2588
3 TAUNET_28:1 TAUNET_28:2 0.4474
4 TAUNET_28:2 TAUNET_28:3 0.3528
5 TAUNET_28:3 TAUGATE_28:A 0.0472
*END

*D_NET TAUNET_57 1.3929
*CONN
*P n217 I
*I TAUGATE_57:A I
*CAP
1 n217 0.1981
2 TAUNET_57:1 0.0169
3 TAUNET_57:2 0.4026
4 TAUNET_57:3 0.4684
5 TAUNET_57:4 0.2490
6 TAUGATE_57:A 0.0579
*RES
2 n217 TAUNET_57:1 0.0423
3 TAUNET_57:1 TAUNET_57:2 0.2861
4 TAUNET_57:2 TAUNET_57:3 0.4278
5 TAUNET_57:3 TAUNET_57:4 0.3875
6 TAUNET_57:4 TAUGATE_57:A 0.4796
*END

*D_NET net_52 1.0064
*CONN
*I TAUGATE_54:Z O
*I inst_86:A3 I
*CAP
1 TAUGATE_54:Z 0.1554
2 net_52:1 0.4380
3 inst_86:A3 0.4130
*RES
2 TAUGATE_54:Z net_52:1 0.4990
3 net_52:1 inst_86:A3 0.2134
*END

*D_NET TAUNET_37 2.0765
*CONN
*I inst_199:ZN O
*I TAUGATE_37:A I
*CAP
1 inst_199:ZN 0.4947
2 TAUNET_37:1 0.2854
3 TAUNET_37:2 0.4464
4 TAUNET_37:3 0.2438
5 TAUNET_37:4 0.2969
6 TAUGATE_37:A 0.3091
*RES
2 inst_199:ZN TAUNET_37:1 0.5006
3 TAUNET_37:1 TAUNET_37:2 0.2264
4 TAUNET_37:2 TAUNET_37:3 0.3973
5 TAUNET_37:3 TAUNET_37:4 0.2044
6 TAUNET_37:4 TAUGATE_37:A 0.1531
*END

*D_NET TAUNET_32 1.2691
*CONN
*I inst_176:ZN O
*I TAUGATE_32:A I
*CAP
1 inst_176:ZN 0.2618
2 TAUNET_32:1 0.4002
3 TAUNET_32:2 0.3652
4 TAUNET_32:3 0.1857
5 TAUGATE_32:A 0.0562
*RES
2 inst_176:ZN TAUNET_32:1 0.0882
3 TAUNET_32:1 TAUNET_32:2 0.4386
4 TAUNET_32:2 TAUNET_32:3 0.2715
5 TAUNET_32:3 TAUGATE_32:A 0.0199
*END

*D_NET TAUNET_38 0.5520
*CONN
*I inst_155:ZN O
*I TAUGATE_38:A I
*CAP
1 inst_155:ZN 0.1459
2 TAUNET_38:1 0.1026
3 TAUNET_38:2 0.1939
4 TAUGATE_38:A 0.1095
*RES
2 inst_155:ZN TAUNET_38:1 0.0212
3 TAUNET_38:1 TAUNET_38:2 0.1417
4 TAUNET_38:2 TAUGATE_38:A 0.2190
*END

*D_NET net_26 1.5644
*CONN
*I TAUGATE_58:Z O
*I inst_38:A I
*CAP
1 TAUGATE_58:Z 0.1138
2 net_26:1 0.3663
3 net_26:2 0.2540
4 net_26:3 0.0526
5 net_26:4 0.2388
6 net_26:5 0.1787
7 inst_38:A 0.3603
*RES
2 TAUGATE_58:Z net_26:1 0.0603
3 net_26:1 net_26:2 0.0863
4 net_26:2 net_26:3 0.3102
5 net_26:3 net_26:4 0.1239
6 net_26:4 net_26:5 0.2473
7 net_26:5 inst_38:A 0.0055
*END

*D_NET net_113 3.5716
*CONN
*I TAUGATE_26:Z O
*I inst_207:A4 I
*I inst_206:A4 I
*I inst_137:A4 I
*I inst_201:A I
*CAP
1 TAUGATE_26:Z 0.2412
2 net_113:1 0.4441
3 net_113:2 0.4218
4 net_113:3 0.0848
5 net_113:4 0.0266
6 inst_201:A 0.0274
7 net_113:5 0.4317
8 net_113:6 0.1801
9 net_113:7 0.2826
10 net_113:8 0.3420
11 inst_206:A4 0.0965
12 net_113:9 0.0327
13 net_113:10 0.0608
14 inst_137:A4 0.3721
15 net_113:11 0.0264
16 net_113:12 0.2502
17 inst_207:A4 0.2506
*RES
2 TAUGATE_26:Z net_113:1 0.4218
3 net_113:1 net_113:2 0.2061
4 net_113:2 net_113:3 0.2110
5 net_113:3 net_113:4 0.4583
6 net_113:4 inst_201:A 0.3985
7 net_113:3 net_113:5 0.2555
8 net_113:5 net_113:6 0.1304
9 net_113:6 net_113:7 0.3675
10 net_113:7 net_113:8 0.4634
11 net_113:8 inst_206:A4 0.2869
12 net_113:3 net_113:9 0.4648
13 net_113:9 net_113:10 0.2376
14 net_113:10 inst_137:A4 0.1146
15 net_113:7 net_113:11 0.4486
16 net_113:11 net_113:12 0.0641
17 net_113:12 inst_207:A4 0.0138
*END

*D_NET net_32 0.7959
*CONN
*I TAUGATE_48:Z O
*I inst_77:A2 I
*CAP
1 TAUGATE_48:Z 0.0204
2 net_32:1 0.1001
3 net_32:2 0.2747
4 net_32:3 0.1704
5 inst_77:A2 0.2303
*RES
2 TAUGATE_48:Z net_32:1 0.0121
3 net_32:1 net_32:2 0.0620
4 net_32:2 net_32:3 0.0267
5 net_32:3 inst_77:A2 0.1278
*END

*D_NET TAUNET_40 1.5058
*CONN
*P n110 I
*I TAUGATE_40:A I
*CAP
1 n110 0.3621
2 TAUNET_40:1 0.3490
3 TAUNET_40:2 0.4751
4 TAUGATE_40:A 0.3195
*RES
2 n110 TAUNET_40:1 0.4748
3 TAUNET_40:1 TAUNET_40:2 0.2505
4 TAUNET_40:2 TAUGATE_40:A 0.2036
*END

*D_NET TAUNET_20 1.2849
*CONN
*I inst_153:ZN O
*I TAUGATE_20:A I
*CAP
1 inst_153:ZN 0.0185
2 TAUNET_20:1 0.2437
3 TAUNET_20:2 0.3641
4 TAUNET_20:3 0.1411
5 TAUNET_20:4 0.2452
6 TAUGATE_20:A 0.2723
*RES
2 inst_153:ZN TAUNET_20:1 0.2079
3 TAUNET_20:1 TAUNET_20:2 0.2449
4 TAUNET_20:2 TAUNET_20:3 0.0406
5 TAUNET_20:3 TAUNET_20:4 0.0917
6 TAUNET_20:4 TAUGATE_20:A 0.0078
*END

*D_NET net_40 0.3723
*CONN
*I TAUGATE_49:Z O
*I inst_43:A I
*CAP
1 TAUGATE_49:Z 0.0264
2 net_40:1 0.1906
3 inst_43:A 0.1553
*RES
2 TAUGATE_49:Z net_40:1 0.0937
3 net_40:1 inst_43:A 0.2944
*END

*D_NET net_90 3.3828
*CONN
*I TAUGATE_24:Z O
*I inst_196:A I
*I inst_169:A2 I
*I inst_170:A2 I
*CAP
1 TAUGATE_24:Z 0.0209
2 net_90:1 0.1067
3 net_90:2 0.4881
4 inst_170:A2 0.3672
5 net_90:3 0.2979
6 net_90:4 0.3428
7 net_90:5 0.2325
8 net_90:6 0.2733
9 net_90:7 0.1266
10 inst_169:A2 0.3814
11 net_90:8 0.4527
12 net_90:9 0.1465
13 inst_196:A 0.1463
*RES
2 TAUGATE_24:Z net_90:1 0.4629
3 net_90:1 net_90:2 0.1157
4 net_90:2 inst_170:A2 0.1901
5 net_90:1 net_90:3 0.1363
6 net_90:3 net_90:4 0.3277
7 net_90:4 net_90:5 0.3144
8 net_90:5 net_90:6 0.4503
9 net_90:6 net_90:7 0.3676
10 net_90:7 inst_169:A2 0.1603
11 net_90:7 net_90:8 0.4621
12 net_90:8 net_90:9 0.4065
13 net_90:9 inst_196:A 0.0227
*END

*D_NET TAUNET_14 0.7521
*CONN
*I inst_169:ZN O
*I TAUGATE_14:A I
*CAP
1 inst_169:ZN 0.4114
2 TAUNET_14:1 0.1546
3 TAUGATE_14:A 0.1861
*RES
2 inst_169:ZN TAUNET_14:1 0.4367
3 TAUNET_14:1 TAUGATE_14:A 0.3452
*END

*D_NET net_18 0.3052
*CONN
*I TAUGATE_31:Z O
*I inst_49:B I
*CAP
1 TAUGATE_31:Z 0.1217
2 net_18:1 0.1222
3 inst_49:B 0.0613
*RES
2 TAUGATE_31:Z net_18:1 0.1692
3 net_18:1 inst_49:B 0.4407
*END

*D_NET TAUNET_49 1.3881
*CONN
*I inst_39:ZN O
*I TAUGATE_49:A I
*CAP
1 inst_39:ZN 0.2563
2 TAUNET_49:1 0.2603
3 TAUNET_49:2 0.2874
4 TAUNET_49:3 0.3072
5 TAUGATE_49:A 0.2768
*RES
2 inst_39:ZN TAUNET_49:1 0.1679
3 TAUNET_49:1 TAUNET_49:2 0.2053
4 TAUNET_49:2 TAUNET_49:3 0.2140
5 TAUNET_49:3 TAUGATE_49:A 0.3306
*END

*D_NET n21 2.0736
*CONN
*I TAUGATE_12:Z O
*P n21 O
*CAP
1 TAUGATE_12:Z 0.2580
2 n21:1 0.4796
3 n21:2 0.3806
4 n21:3 0.4946
5 n21 0.4608
*RES
2 TAUGATE_12:Z n21:1 0.4692
3 n21:1 n21:2 0.4766
4 n21:2 n21:3 0.0589
5 n21:3 n21 0.0962
*END

*D_NET net_77 2.1074
*CONN
*I TAUGATE_34:Z O
*I inst_68:B I
*I inst_108:A2 I
*CAP
1 TAUGATE_34:Z 0.1750
2 net_77:1 0.0845
3 net_77:2 0.1888
4 net_77:3 0.1436
5 net_77:4 0.1762
6 net_77:5 0.4748
7 inst_68:B 0.0806
8 net_77:6 0.4110
9 net_77:7 0.0191
10 inst_108:A2 0.3538
*RES
2 TAUGATE_34:Z net_77:1 0.0407
3 net_77:1 net_77:2 0.2069
4 net_77:2 net_77:3 0.0491
5 net_77:3 net_77:4 0.4137
6 net_77:4 net_77:5 0.3046
7 net_77:5 inst_68:B 0.2987
8 net_77:3 net_77:6 0.4300
9 net_77:6 net_77:7 0.3629
10 net_77:7 inst_108:A2 0.0787
*END

*D_NET TAUNET_50 2.0675
*CONN
*I inst_143:ZN O
*I TAUGATE_50:A I
*CAP
1 inst_143:ZN 0.2971
2 TAUNET_50:1 0.5010
3 TAUNET_50:2 0.3538
4 TAUNET_50:3 0.4649
5 TAUNET_50:4 0.0482
6 TAUNET_50:5 0.1062
7 TAUGATE_50:A 0.2963
*RES
2 inst_143:ZN TAUNET_50:1 0.4911
3 TAUNET_50:1 TAUNET_50:2 0.2002
4 TAUNET_50:2 TAUNET_50:3 0.2573
5 TAUNET_50:3 TAUNET_50:4 0.3761
6 TAUNET_50:4 TAUNET_50:5 0.0616
7 TAUNET_50:5 TAUGATE_50:A 0.4298
*END

*D_NET net_31 0.5116
*CONN
*I TAUGATE_35:Z O
*I inst_76:A2 I
*CAP
1 TAUGATE_35:Z 0.2634
2 net_31:1 0.0745
3 inst_76:A2 0.1738
*RES
2 TAUGATE_35:Z net_31:1 0.4336
3 net_31:1 inst_76:A2 0.4556
*END

*D_NET TAUNET_23 1.0764
*CONN
*I inst_208:ZN O
*I TAUGATE_23:A I
*CAP
1 inst_208:ZN 0.0036
2 TAUNET_23:1 0.2737
3 TAUNET_23:2 0.3095
4 TAUGATE_23:A 0.4895
*RES
2 inst_208:ZN TAUNET_23:1 0.4033
3 TAUNET_23:1 TAUNET_23:2 0.2734
4 TAUNET_23:2 TAUGATE_23:A 0.3461
*END

*D_NET TAUNET_39 1.3424
*CONN
*P n137 I
*I TAUGATE_39:A I
*CAP
1 n137 0.0418
2 TAUNET_39:1 0.3815
3 TAUNET_39:2 0.1458
4 TAUNET_39:3 0.4915
5 TAUNET_39:4 0.0683
6 TAUGATE_39:A 0.2135
*RES
2 n137 TAUNET_39:1 0.4484
3 TAUNET_39:1 TAUNET_39:2 0.1379
4 TAUNET_39:2 TAUNET_39:3 0.1139
5 TAUNET_39:3 TAUNET_39:4 0.0489
6 TAUNET_39:4 TAUGATE_39:A 0.0861
*END

*D_NET net_17 1.2401
*CONN
*I TAUGATE_19:Z O
*I inst_36:A I
*CAP
1 TAUGATE_19:Z 0.4806
2 net_17:1 0.1114
3 net_17:2 0.0198
4 net_17:3 0.2366
5 net_17:4 0.1100
6 inst_36:A 0.2818
*RES
2 TAUGATE_19:Z net_17:1 0.3290
3 net_17:1 net_17:2 0.1592
4 net_17:2 net_17:3 0.4236
5 net_17:3 net_17:4 0.3328
6 net_17:4 inst_36:A 0.1906
*END

*D_NET TAUNET_51 1.5747
*CONN
*I inst_27:Z O
*I TAUGATE_51:A I
*CAP
1 inst_27:Z 0.4347
2 TAUNET_51:1 0.1394
3 TAUNET_51:2 0.0096
4 TAUNET_51:3 0.4963
5 TAUNET_51:4 0.2377
6 TAUGATE_51:A 0.2571
*RES
2 inst_27:Z TAUNET_51:1 0.3610
3 TAUNET_51:1 TAUNET_51:2 0.0042
4 TAUNET_51:2 TAUNET_51:3 0.2690
5 TAUNET_51:3 TAUNET_51:4 0.3841
6 TAUNET_51:4 TAUGATE_51:A 0.3400
*END

*D_NET net_78 1.2277
*CONN
*I TAUGATE_25:Z O
*I inst_16:A I
*CAP
1 TAUGATE_25:Z 0.3112
2 net_78:1 0.4134
3 net_78:2 0.0741
4 inst_16:A 0.4290
*RES
2 TAUGATE_25:Z net_78:1 0.4891
3 net_78:1 net_78:2 0.0621
4 net_78:2 inst_16:A 0.2122
*END

*D_NET net_57 0.7629
*CONN
*I TAUGATE_59:Z O
*I inst_87:A1 I
*CAP
1 TAUGATE_59:Z 0.1253
2 net_57:1 0.2343
3 net_57:2 0.1106
4 net_57:3 0.0283
5 inst_87:A1 0.2644
*RES
2 TAUGATE_59:Z net_57:1 0.3395
3 net_57:1 net_57:2 0.4160
4 net_57:2 net_57:3 0.1311
5 net_57:3 inst_87:A1 0.1702
*END

*D_NET TAUNET_19 0.8144
*CONN
*I inst_9:Z O
*I TAUGATE_19:A I
*CAP
1 inst_9:Z 0.0383
2 TAUNET_19:1 0.2177
3 TAUNET_19:2 0.0520
4 TAUNET_19:3 0.1787
5 TAUGATE_19:A 0.3277
*RES
2 inst_9:Z TAUNET_19:1 0.2308
3 TAUNET_19:1 TAUNET_19:2 0.1825
4 TAUNET_19:2 TAUNET_19:3 0.4154
5 TAUNET_19:3 TAUGATE_19:A 0.4205
*END

*D_NET TAUNET_34 0.9305
*CONN
*I inst_53:ZN O
*I TAUGATE_34:A I
*CAP
1 inst_53:ZN 0.3303
2 TAUNET_34:1 0.3450
3 TAUGATE_34:A 0.2552
*RES
2 inst_53:ZN TAUNET_34:1 0.2397
3 TAUNET_34:1 TAUGATE_34:A 0.3943
*END

*D_NET n217 2.0445
*CONN
*I TAUGATE_57:Z O
*I inst_141:A2 I
*I inst_163:A1 I
*CAP
1 TAUGATE_57:Z 0.3586
2 n217:1 0.2132
3 n217:2 0.3448
4 inst_141:A2 0.2539
5 n217:3 0.3825
6 inst_163:A1 0.4916
*RES
2 TAUGATE_57:Z n217:1 0.0169
3 n217:1 n217:2 0.2910
4 n217:2 inst_141:A2 0.3418
5 n217:1 n217:3 0.0258
6 n217:3 inst_163:A1 0.0722
*END

*D_NET n69 0.1761
*CONN
*I TAUGATE_55:Z O
*P n69 O
*CAP
1 TAUGATE_55:Z 0.0274
2 n69:1 0.0758
3 n69 0.0730
*RES
2 TAUGATE_55:Z n69:1 0.2996
3 n69:1 n69 0.1500
*END

*D_NET TAUNET_54 1.1459
*CONN
*I inst_102:ZN O
*I TAUGATE_54:A I
*CAP
1 inst_102:ZN 0.0605
2 TAUNET_54:1 0.4347
3 TAUNET_54:2 0.2976
4 TAUGATE_54:A 0.3531
*RES
2 inst_102:ZN TAUNET_54:1 0.0316
3 TAUNET_54:1 TAUNET_54:2 0.1823
4 TAUNET_54:2 TAUGATE_54:A 0.0755
*END

*D_NET TAUNET_44 1.1637
*CONN
*I inst_79:ZN O
*I TAUGATE_44:A I
*CAP
1 inst_79:ZN 0.3515
2 TAUNET_44:1 0.4269
3 TAUNET_44:2 0.0493
4 TAUNET_44:3 0.0341
5 TAUGATE_44:A 0.3020
*RES
2 inst_79:ZN TAUNET_44:1 0.3389
3 TAUNET_44:1 TAUNET_44:2 0.4000
4 TAUNET_44:2 TAUNET_44:3 0.0188
5 TAUNET_44:3 TAUGATE_44:A 0.4709
*END

*D_NET net_0 0.8262
*CONN
*I TAUGATE_16:Z O
*I inst_85:A2 I
*CAP
1 TAUGATE_16:Z 0.0122
2 net_0:1 0.0936
3 net_0:2 0.3051
4 net_0:3 0.1197
5 inst_85:A2 0.2956
*RES
2 TAUGATE_16:Z net_0:1 0.2210
3 net_0:1 net_0:2 0.0970
4 net_0:2 net_0:3 0.2798
5 net_0:3 inst_85:A2 0.3150
*END

*D_NET n143 3.4323
*CONN
*I TAUGATE_11:Z O
*I inst_8:A I
*I inst_21:B I
*I inst_9:B I
*I inst_39:B I
*CAP
1 TAUGATE_11:Z 0.2108
2 n143:1 0.0161
3 n143:2 0.2047
4 n143:3 0.3729
5 n143:4 0.0610
6 inst_8:A 0.4010
7 n143:5 0.3618
8 n143:6 0.0820
9 n143:7 0.2174
10 n143:8 0.3638
11 inst_21:B 0.4097
12 n143:9 0.0910
13 n143:10 0.1278
14 inst_9:B 0.3093
15 n143:11 0.0044
16 inst_39:B 0.1986
*RES
2 TAUGATE_11:Z n143:1 0.2910
3 n143:1 n143:2 0.3768
4 n143:2 n143:3 0.3083
5 n143:3 n143:4 0.1250
6 n143:4 inst_8:A 0.3526
7 n143:4 n143:5 0.2418
8 n143:5 n143:6 0.4080
9 n143:6 n143:7 0.3118
10 n143:7 n143:8 0.4981
11 n143:8 inst_21:B 0.3134
12 n143:7 n143:9 0.3342
13 n143:9 n143:10 0.2150
14 n143:10 inst_9:B 0.0109
15 n143:5 n143:11 0.0476
16 n143:11 inst_39:B 0.0521
*END

*D_NET net_156 2.5738
*CONN
*I TAUGATE_15:Z O
*I inst_24:A I
*I inst_82:A3 I
*CAP
1 TAUGATE_15:Z 0.0043
2 net_156:1 0.4724
3 net_156:2 0.2677
4 net_156:3 0.2426
5 inst_24:A 0.1466
6 net_156:4 0.0309
7 net_156:5 0.1138
8 net_156:6 0.3809
9 net_156:7 0.3567
10 net_156:8 0.3242
11 inst_82:A3 0.2336
*RES
2 TAUGATE_15:Z net_156:1 0.2784
3 net_156:1 net_156:2 0.2008
4 net_156:2 net_156:3 0.3776
5 net_156:3 inst_24:A 0.2937
6 net_156:2 net_156:4 0.3863
7 net_156:4 net_156:5 0.2365
8 net_156:5 net_156:6 0.1037
9 net_156:6 net_156:7 0.3572
10 net_156:7 net_156:8 0.2211
11 net_156:8 inst_82:A3 0.2185
*END

*D_NET net_3 1.2191
*CONN
*I TAUGATE_20:Z O
*I inst_158:A2 I
*CAP
1 TAUGATE_20:Z 0.2538
2 net_3:1 0.4791
3 net_3:2 0.2417
4 inst_158:A2 0.2444
*RES
2 TAUGATE_20:Z net_3:1 0.4262
3 net_3:1 net_3:2 0.3737
4 net_3:2 inst_158:A2 0.3015
*END

*D_NET net_191 1.5079
*CONN
*I TAUGATE_23:Z O
*I inst_209:A1 I
*CAP
1 TAUGATE_23:Z 0.3035
2 net_191:1 0.0863
3 net_191:2 0.2362
4 net_191:3 0.1365
5 net_191:4 0.0277
6 net_191:5 0.4263
7 inst_209:A1 0.2912
*RES
2 TAUGATE_23:Z net_191:1 0.1111
3 net_191:1 net_191:2 0.3711
4 net_191:2 net_191:3 0.0512
5 net_191:3 net_191:4 0.1351
6 net_191:4 net_191:5 0.0984
7 net_191:5 inst_209:A1 0.0368
*END

*D_NET TAUNET_43 1.0413
*CONN
*I inst_184:ZN O
*I TAUGATE_43:A I
*CAP
1 inst_184:ZN 0.1423
2 TAUNET_43:1 0.1146
3 TAUNET_43:2 0.3234
4 TAUGATE_43:A 0.4610
*RES
2 inst_184:ZN TAUNET_43:1 0.4832
3 TAUNET_43:1 TAUNET_43:2 0.2776
4 TAUNET_43:2 TAUGATE_43:A 0.3781
*END

*D_NET TAUNET_56 1.1921
*CONN
*I inst_206:ZN O
*I TAUGATE_56:A I
*CAP
1 inst_206:ZN 0.0185
2 TAUNET_56:1 0.1588
3 TAUNET_56:2 0.3738
4 TAUNET_56:3 0.4556
5 TAUNET_56:4 0.1835
6 TAUGATE_56:A 0.0020
*RES
2 inst_206:ZN TAUNET_56:1 0.2614
3 TAUNET_56:1 TAUNET_56:2 0.3010
4 TAUNET_56:2 TAUNET_56:3 0.2164
5 TAUNET_56:3 TAUNET_56:4 0.4372
6 TAUNET_56:4 TAUGATE_56:A 0.1158
*END

*D_NET TAUNET_55 1.1191
*CONN
*I inst_65:ZN O
*I TAUGATE_55:A I
*CAP
1 inst_65:ZN 0.3810
2 TAUNET_55:1 0.1662
3 TAUNET_55:2 0.3178
4 TAUGATE_55:A 0.2541
*RES
2 inst_65:ZN TAUNET_55:1 0.2497
3 TAUNET_55:1 TAUNET_55:2 0.4625
4 TAUNET_55:2 TAUGATE_55:A 0.2343
*END

*D_NET net_112 1.0962
*CONN
*I TAUGATE_56:Z O
*I inst_83:A3 I
*CAP
1 TAUGATE_56:Z 0.3461
2 net_112:1 0.4109
3 net_112:2 0.0945
4 net_112:3 0.2326
5 inst_83:A3 0.0121
*RES
2 TAUGATE_56:Z net_112:1 0.2674
3 net_112:1 net_112:2 0.2072
4 net_112:2 net_112:3 0.0414
5 net_112:3 inst_83:A3 0.2455
*END

*D_NET TAUNET_11 1.7627
*CONN
*P n143 I
*I TAUGATE_11:A I
*CAP
1 n143 0.0138
2 TAUNET_11:1 0.3131
3 TAUNET_11:2 0.4392
4 TAUNET_11:3 0.4048
5 TAUNET_11:4 0.0368
6 TAUNET_11:5 0.3283
7 TAUGATE_11:A 0.2266
*RES
2 n143 TAUNET_11:1 0.4199
3 TAUNET_11:1 TAUNET_11:2 0.3736
4 TAUNET_11:2 TAUNET_11:3 0.3306
5 TAUNET_11:3 TAUNET_11:4 0.3042
6 TAUNET_11:4 TAUNET_11:5 0.1317
7 TAUNET_11:5 TAUGATE_11:A 0.1481
*END

*D_NET TAUNET_33 1.0046
*CONN
*I inst_57:ZN O
*I TAUGATE_33:A I
*CAP
1 inst_57:ZN 0.2201
2 TAUNET_33:1 0.3013
3 TAUNET_33:2 0.0758
4 TAUNET_33:3 0.0262
5 TAUGATE_33:A 0.3812
*RES
2 inst_57:ZN TAUNET_33:1 0.0656
3 TAUNET_33:1 TAUNET_33:2 0.1550
4 TAUNET_33:2 TAUNET_33:3 0.0047
5 TAUNET_33:3 TAUGATE_33:A 0.1418
*END

*D_NET TAUNET_22 1.5283
*CONN
*I inst_130:ZN O
*I TAUGATE_22:A I
*CAP
1 inst_130:ZN 0.3805
2 TAUNET_22:1 0.0497
3 TAUNET_22:2 0.4938
4 TAUNET_22:3 0.3913
5 TAUGATE_22:A 0.2131
*RES
2 inst_130:ZN TAUNET_22:1 0.3201
3 TAUNET_22:1 TAUNET_22:2 0.0320
4 TAUNET_22:2 TAUNET_22:3 0.2786
5 TAUNET_22:3 TAUGATE_22:A 0.3378
*END

*D_NET TAUNET_41 2.0655
*CONN
*I inst_163:ZN O
*I TAUGATE_41:A I
*CAP
1 inst_163:ZN 0.2454
2 TAUNET_41:1 0.2663
3 TAUNET_41:2 0.3641
4 TAUNET_41:3 0.1740
5 TAUNET_41:4 0.2701
6 TAUNET_41:5 0.3351
7 TAUGATE_41:A 0.4105
*RES
2 inst_163:ZN TAUNET_41:1 0.3004
3 TAUNET_41:1 TAUNET_41:2 0.3665
4 TAUNET_41:2 TAUNET_41:3 0.1341
5 TAUNET_41:3 TAUNET_41:4 0.0859
6 TAUNET_41:4 TAUNET_41:5 0.1706
7 TAUNET_41:5 TAUGATE_41:A 0.3812
*END

*D_NET TAUNET_30 0.4838
*CONN
*I inst_210:ZN O
*I TAUGATE_30:A I
*CAP
1 inst_210:ZN 0.1227
2 TAUNET_30:1 0.0059
3 TAUGATE_30:A 0.3552
*RES
2 inst_210:ZN TAUNET_30:1 0.3839
3 TAUNET_30:1 TAUGATE_30:A 0.1840
*END

*D_NET TAUNET_58 2.5126
*CONN
*I inst_85:ZN O
*I TAUGATE_58:A I
*CAP
1 inst_85:ZN 0.3573
2 TAUNET_58:1 0.3575
3 TAUNET_58:2 0.1715
4 TAUNET_58:3 0.3050
5 TAUNET_58:4 0.3594
6 TAUNET_58:5 0.4902
7 TAUGATE_58:A 0.4716
*RES
2 inst_85:ZN TAUNET_58:1 0.2112
3 TAUNET_58:1 TAUNET_58:2 0.1762
4 TAUNET_58:2 TAUNET_58:3 0.1166
5 TAUNET_58:3 TAUNET_58:4 0.1660
6 TAUNET_58:4 TAUNET_58:5 0.2177
7 TAUNET_58:5 TAUGATE_58:A 0.2908
*END

*D_NET TAUNET_5 1.2533
*CONN
*I TAUGATE_21:Z O
*I TAUGATE_5:A I
*CAP
1 TAUGATE_21:Z 0.3308
2 TAUNET_5:1 0.4669
3 TAUNET_5:2 0.1932
4 TAUNET_5:3 0.0675
5 TAUNET_5:4 0.0053
6 TAUNET_5:5 0.1459
7 TAUGATE_5:A 0.0437
*RES
2 TAUGATE_21:Z TAUNET_5:1 0.4598
3 TAUNET_5:1 TAUNET_5:2 0.3838
4 TAUNET_5:2 TAUNET_5:3 0.2033
5 TAUNET_5:3 TAUNET_5:4 0.3263
6 TAUNET_5:4 TAUNET_5:5 0.4574
7 TAUNET_5:5 TAUGATE_5:A 0.4683
*END

*D_NET n110 6.5441
*CONN
*I TAUGATE_40:Z O
*I inst_24:B I
*I inst_33:B I
*I inst_3:B I
*I inst_7:B I
*CAP
1 TAUGATE_40:Z 0.4873
2 n110:1 0.4800
3 n110:2 0.4518
4 inst_33:B 0.0570
5 n110:3 0.2594
6 n110:4 0.3565
7 n110:5 0.4074
8 n110:6 0.4309
9 n110:7 0.4474
10 inst_24:B 0.2931
11 n110:8 0.4663
12 n110:9 0.2866
13 n110:10 0.1873
14 n110:11 0.1599
15 n110:12 0.3589
16 inst_3:B 0.4697
17 n110:13 0.4162
18 n110:14 0.1285
19 n110:15 0.0491
20 inst_7:B 0.3511
*RES
2 TAUGATE_40:Z n110:1 0.4909
3 n110:1 n110:2 0.0572
4 n110:2 inst_33:B 0.5008
5 n110:1 n110:3 0.2848
6 n110:3 n110:4 0.2246
7 n110:4 n110:5 0.3320
8 n110:5 n110:6 0.3870
9 n110:6 n110:7 0.3663
10 n110:7 inst_24:B 0.1512
11 n110:2 n110:8 0.4844
12 n110:8 n110:9 0.0401
13 n110:9 n110:10 0.2861
14 n110:10 n110:11 0.1883
15 n110:11 n110:12 0.3075
16 n110:12 inst_3:B 0.0604
17 n110:10 n110:13 0.2111
18 n110:13 n110:14 0.3010
19 n110:14 n110:15 0.1515
20 n110:15 inst_7:B 0.0492
*END

*D_NET net_144 1.9812
*CONN
*I TAUGATE_36:Z O
*I inst_179:A2 I
*I inst_180:A2 I
*CAP
1 TAUGATE_36:Z 0.0711
2 net_144:1 0.0021
3 net_144:2 0.2080
4 net_144:3 0.3529
5 inst_180:A2 0.4886
6 net_144:4 0.0882
7 net_144:5 0.2924
8 inst_179:A2 0.4780
*RES
2 TAUGATE_36:Z net_144:1 0.3648
3 net_144:1 net_144:2 0.4404
4 net_144:2 net_144:3 0.3187
5 net_144:3 inst_180:A2 0.4272
6 net_144:2 net_144:4 0.3510
7 net_144:4 net_144:5 0.1182
8 net_144:5 inst_179:A2 0.2614
*END

*D_NET net_180 5.2914
*CONN
*I TAUGATE_43:Z O
*I inst_150:A3 I
*I inst_148:A3 I
*I inst_151:A3 I
*I inst_185:A2 I
*I inst_149:A3 I
*CAP
1 TAUGATE_43:Z 0.2582
2 net_180:1 0.0762
3 net_180:2 0.1986
4 net_180:3 0.3922
5 net_180:4 0.3950
6 net_180:5 0.2666
7 inst_148:A3 0.4255
8 net_180:6 0.3579
9 net_180:7 0.1300
10 inst_150:A3 0.3795
11 net_180:8 0.3126
12 inst_151:A3 0.0195
13 net_180:9 0.4948
14 net_180:10 0.4038
15 net_180:11 0.1954
16 net_180:12 0.0063
17 inst_185:A2 0.4904
18 net_180:13 0.2934
19 net_180:14 0.0661
20 net_180:15 0.0281
21 inst_149:A3 0.1011
*RES
2 TAUGATE_43:Z net_180:1 0.4671
3 net_180:1 net_180:2 0.2972
4 net_180:2 net_180:3 0.3936
5 net_180:3 net_180:4 0.4880
6 net_180:4 net_180:5 0.4169
7 net_180:5 inst_148:A3 0.3167
8 net_180:4 net_180:6 0.2362
9 net_180:6 net_180:7 0.1908
10 net_180:7 inst_150:A3 0.1996
11 net_180:2 net_180:8 0.0541
12 net_180:8 inst_151:A3 0.3700
13 net_180:6 net_180:9 0.0915
14 net_180:9 net_180:10 0.4619
15 net_180:10 net_180:11 0.1065
16 net_180:11 net_180:12 0.1990
17 net_180:12 inst_185:A2 0.2576
18 net_180:2 net_180:13 0.2539
19 net_180:13 net_180:14 0.0765
20 net_180:14 net_180:15 0.1980
21 net_180:15 inst_149:A3 0.3226
*END

*D_NET net_9 2.4686
*CONN
*I TAUGATE_38:Z O
*I inst_35:B I
*CAP
1 TAUGATE_38:Z 0.2766
2 net_9:1 0.4267
3 net_9:2 0.4596
4 net_9:3 0.3295
5 net_9:4 0.4724
6 net_9:5 0.4631
7 inst_35:B 0.0407
*RES
2 TAUGATE_38:Z net_9:1 0.4130
3 net_9:1 net_9:2 0.3462
4 net_9:2 net_9:3 0.0714
5 net_9:3 net_9:4 0.2110
6 net_9:4 net_9:5 0.2588
7 net_9:5 inst_35:B 0.0339
*END

*D_NET TAUNET_52 0.9948
*CONN
*I inst_146:ZN O
*I TAUGATE_52:A I
*CAP
1 inst_146:ZN 0.4874
2 TAUNET_52:1 0.2489
3 TAUGATE_52:A 0.2584
*RES
2 inst_146:ZN TAUNET_52:1 0.0346
3 TAUNET_52:1 TAUGATE_52:A 0.4333
*END

*D_NET TAUNET_59 1.2318
*CONN
*I inst_214:ZN O
*I TAUGATE_59:A I
*CAP
1 inst_214:ZN 0.3416
2 TAUNET_59:1 0.1540
3 TAUNET_59:2 0.0325
4 TAUNET_59:3 0.0924
5 TAUNET_59:4 0.1850
6 TAUNET_59:5 0.1516
7 TAUGATE_59:A 0.2746
*RES
2 inst_214:ZN TAUNET_59:1 0.4228
3 TAUNET_59:1 TAUNET_59:2 0.1417
4 TAUNET_59:2 TAUNET_59:3 0.3754
5 TAUNET_59:3 TAUNET_59:4 0.2016
6 TAUNET_59:4 TAUNET_59:5 0.0068
7 TAUNET_59:5 TAUGATE_59:A 0.2001
*END

*D_NET TAUNET_48 1.0932
*CONN
*I inst_101:ZN O
*I TAUGATE_48:A I
*CAP
1 inst_101:ZN 0.4926
2 TAUNET_48:1 0.3810
3 TAUGATE_48:A 0.2195
*RES
2 inst_101:ZN TAUNET_48:1 0.2042
3 TAUNET_48:1 TAUGATE_48:A 0.2030
*END

*D_NET net_97 1.9497
*CONN
*I TAUGATE_14:Z O
*I inst_200:A I
*I inst_120:A2 I
*CAP
1 TAUGATE_14:Z 0.4413
2 net_97:1 0.4042
3 net_97:2 0.0451
4 inst_120:A2 0.2391
5 net_97:3 0.4797
6 net_97:4 0.0551
7 net_97:5 0.1877
8 inst_200:A 0.0973
*RES
2 TAUGATE_14:Z net_97:1 0.0321
3 net_97:1 net_97:2 0.4146
4 net_97:2 inst_120:A2 0.0857
5 net_97:2 net_97:3 0.4235
6 net_97:3 net_97:4 0.1903
7 net_97:4 net_97:5 0.2143
8 net_97:5 inst_200:A 0.0701
*END

*D_NET TAUNET_42 1.7676
*CONN
*I inst_123:ZN O
*I TAUGATE_42:A I
*CAP
1 inst_123:ZN 0.4634
2 TAUNET_42:1 0.2766
3 TAUNET_42:2 0.3086
4 TAUNET_42:3 0.2353
5 TAUGATE_42:A 0.4838
*RES
2 inst_123:ZN TAUNET_42:1 0.0722
3 TAUNET_42:1 TAUNET_42:2 0.3539
4 TAUNET_42:2 TAUNET_42:3 0.3446
5 TAUNET_42:3 TAUGATE_42:A 0.0192
*END

*D_NET TAUNET_18 1.5540
*CONN
*I inst_106:ZN O
*I TAUGATE_18:A I
*CAP
1 inst_106:ZN 0.4054
2 TAUNET_18:1 0.4419
3 TAUNET_18:2 0.1561
4 TAUNET_18:3 0.1347
5 TAUNET_18:4 0.0224
6 TAUGATE_18:A 0.3933
*RES
2 inst_106:ZN TAUNET_18:1 0.2244
3 TAUNET_18:1 TAUNET_18:2 0.4154
4 TAUNET_18:2 TAUNET_18:3 0.1374
5 TAUNET_18:3 TAUNET_18:4 0.1713
6 TAUNET_18:4 TAUGATE_18:A 0.2153
*END

*D_NET net_96 1.6905
*CONN
*I TAUGATE_37:Z O
*I inst_119:A2 I
*CAP
1 TAUGATE_37:Z 0.4918
2 net_96:1 0.0251
3 net_96:2 0.0071
4 net_96:3 0.2242
5 net_96:4 0.4834
6 inst_119:A2 0.4589
*RES
2 TAUGATE_37:Z net_96:1 0.0098
3 net_96:1 net_96:2 0.3264
4 net_96:2 net_96:3 0.2846
5 net_96:3 net_96:4 0.4721
6 net_96:4 inst_119:A2 0.1185
*END

*D_NET TAUNET_45 1.2448
*CONN
*I inst_104:ZN O
*I TAUGATE_45:A I
*CAP
1 inst_104:ZN 0.3703
2 TAUNET_45:1 0.4409
3 TAUGATE_45:A 0.4335
*RES
2 inst_104:ZN TAUNET_45:1 0.3158
3 TAUNET_45:1 TAUGATE_45:A 0.2513
*END

*D_NET TAUNET_3 1.1989
*CONN
*I TAUGATE_42:Z O
*I TAUGATE_3:A I
*CAP
1 TAUGATE_42:Z 0.1640
2 TAUNET_3:1 0.3155
3 TAUNET_3:2 0.4909
4 TAUGATE_3:A 0.2285
*RES
2 TAUGATE_42:Z TAUNET_3:1 0.2293
3 TAUNET_3:1 TAUNET_3:2 0.4514
4 TAUNET_3:2 TAUGATE_3:A 0.1489
*END

*D_NET TAUNET_21 1.3305
*CONN
*I inst_165:ZN O
*I TAUGATE_21:A I
*CAP
1 inst_165:ZN 0.1815
2 TAUNET_21:1 0.3238
3 TAUNET_21:2 0.1536
4 TAUNET_21:3 0.2744
5 TAUGATE_21:A 0.3973
*RES
2 inst_165:ZN TAUNET_21:1 0.0682
3 TAUNET_21:1 TAUNET_21:2 0.0813
4 TAUNET_21:2 TAUNET_21:3 0.2235
5 TAUNET_21:3 TAUGATE_21:A 0.0018
*END

*D_NET net_182 1.8273
*CONN
*I TAUGATE_13:Z O
*I inst_66:A I
*CAP
1 TAUGATE_13:Z 0.4580
2 net_182:1 0.4660
3 net_182:2 0.3296
4 net_182:3 0.2711
5 net_182:4 0.1177