*SPEF "IEEE 1481-1998"
*DESIGN "changes"
*DATE "Tue Dec 02 20:38:31 2014"
*VENDOR "TAU 2015 Contest"
*PROGRAM "Benchmark Parasitic Generator"
*VERSION "0.0"
*DESIGN_FLOW "NETLIST_TYPE_VERILOG"
*DIVIDER /
*DELIMITER :
*BUS_DELIMITER [ ]
*T_UNIT 1 PS
*C_UNIT 1 FF
*R_UNIT 1 KOHM
*L_UNIT 1 UH

*D_NET net_185 1.7439
*CONN
*I TAUGATE_7:Z O
*I inst_70:A I
*CAP
1 TAUGATE_7:Z 0.2611
2 net_185:1 0.4098
3 net_185:2 0.5009
4 net_185:3 0.2843
5 inst_70:A 0.2878
*RES
2 TAUGATE_7:Z net_185:1 0.1659
3 net_185:1 net_185:2 0.2742
4 net_185:2 net_185:3 0.3494
5 net_185:3 inst_70:A 0.1485
*END

*D_NET TAUNET_9 1.3760
*CONN
*I inst_178:ZN O
*I TAUGATE_9:A I
*CAP
1 inst_178:ZN 0.2110
2 TAUNET_9:1 0.3070
3 TAUNET_9:2 0.3583
4 TAUNET_9:3 0.1395
5 TAUNET_9:4 0.0646
6 TAUNET_9:5 0.0794
7 TAUGATE_9:A 0.2161
*RES
2 inst_178:ZN TAUNET_9:1 0.1614
3 TAUNET_9:1 TAUNET_9:2 0.3312
4 TAUNET_9:2 TAUNET_9:3 0.3755
5 TAUNET_9:3 TAUNET_9:4 0.4644
6 TAUNET_9:4 TAUNET_9:5 0.4559
7 TAUNET_9:5 TAUGATE_9:A 0.4050
*END

*D_NET TAUNET_5 0.4849
*CONN
*I inst_165:ZN O
*I TAUGATE_5:A I
*CAP
1 inst_165:ZN 0.1670
2 TAUNET_5:1 0.2440
3 TAUNET_5:2 0.0332
4 TAUGATE_5:A 0.0406
*RES
2 inst_165:ZN TAUNET_5:1 0.2732
3 TAUNET_5:1 TAUNET_5:2 0.0073
4 TAUNET_5:2 TAUGATE_5:A 0.1308
*END

*D_NET TAUNET_8 1.8161
*CONN
*I inst_205:ZN O
*I TAUGATE_8:A I
*CAP
1 inst_205:ZN 0.2909
2 TAUNET_8:1 0.0740
3 TAUNET_8:2 0.4871
4 TAUNET_8:3 0.4951
5 TAUNET_8:4 0.4125
6 TAUGATE_8:A 0.0565
*RES
2 inst_205:ZN TAUNET_8:1 0.1285
3 TAUNET_8:1 TAUNET_8:2 0.0292
4 TAUNET_8:2 TAUNET_8:3 0.2926
5 TAUNET_8:3 TAUNET_8:4 0.4507
6 TAUNET_8:4 TAUGATE_8:A 0.3356
*END

*D_NET net_196 1.9602
*CONN
*I TAUGATE_6:Z O
*I inst_135:A2 I
*CAP
1 TAUGATE_6:Z 0.3845
2 net_196:1 0.3056
3 net_196:2 0.3464
4 net_196:3 0.0305
5 net_196:4 0.2383
6 net_196:5 0.4020
7 inst_135:A2 0.2529
*RES
2 TAUGATE_6:Z net_196:1 0.2665
3 net_196:1 net_196:2 0.4354
4 net_196:2 net_196:3 0.1977
5 net_196:3 net_196:4 0.0788
6 net_196:4 net_196:5 0.3276
7 net_196:5 inst_135:A2 0.3833
*END

*D_NET net_170 0.8670
*CONN
*I TAUGATE_8:Z O
*I inst_83:A2 I
*CAP
1 TAUGATE_8:Z 0.0716
2 net_170:1 0.1922
3 net_170:2 0.2805
4 net_170:3 0.1322
5 inst_83:A2 0.1905
*RES
2 TAUGATE_8:Z net_170:1 0.4017
3 net_170:1 net_170:2 0.4680
4 net_170:2 net_170:3 0.2976
5 net_170:3 inst_83:A2 0.2331
*END

*D_NET net_135 2.1383
*CONN
*I TAUGATE_5:Z O
*I inst_92:A1 I
*I inst_91:A1 I
*CAP
1 TAUGATE_5:Z 0.3943
2 net_135:1 0.1955
3 net_135:2 0.1868
4 net_135:3 0.4889
5 inst_91:A1 0.0703
6 net_135:4 0.3990
7 inst_92:A1 0.4035
*RES
2 TAUGATE_5:Z net_135:1 0.3298
3 net_135:1 net_135:2 0.4131
4 net_135:2 net_135:3 0.3310
5 net_135:3 inst_91:A1 0.2621
6 net_135:1 net_135:4 0.0219
7 net_135:4 inst_92:A1 0.0830
*END

*D_NET TAUNET_6 1.6212
*CONN
*I inst_209:ZN O
*I TAUGATE_6:A I
*CAP
1 inst_209:ZN 0.1250
2 TAUNET_6:1 0.4976
3 TAUNET_6:2 0.3591
4 TAUNET_6:3 0.2780
5 TAUNET_6:4 0.2022
6 TAUGATE_6:A 0.1593
*RES
2 inst_209:ZN TAUNET_6:1 0.4382
3 TAUNET_6:1 TAUNET_6:2 0.3498
4 TAUNET_6:2 TAUNET_6:3 0.4055
5 TAUNET_6:3 TAUNET_6:4 0.4519
6 TAUNET_6:4 TAUGATE_6:A 0.4658
*END

*D_NET net_150 2.2534
*CONN
*I TAUGATE_9:Z O
*I inst_139:A4 I
*I inst_59:B I
*CAP
1 TAUGATE_9:Z 0.4019
2 net_150:1 0.2503
3 inst_59:B 0.4700
4 net_150:2 0.0376
5 net_150:3 0.0972
6 net_150:4 0.3594
7 net_150:5 0.0525
8 net_150:6 0.3248
9 inst_139:A4 0.2597
*RES
2 TAUGATE_9:Z net_150:1 0.3789
3 net_150:1 inst_59:B 0.3545
4 net_150:1 net_150:2 0.1267
5 net_150:2 net_150:3 0.3840
6 net_150:3 net_150:4 0.2434
7 net_150:4 net_150:5 0.3726
8 net_150:5 net_150:6 0.2980
9 net_150:6 inst_139:A4 0.2454
*END

*D_NET TAUNET_7 1.0674
*CONN
*I inst_127:ZN O
*I TAUGATE_7:A I
*CAP
1 inst_127:ZN 0.1921
2 TAUNET_7:1 0.4443
3 TAUNET_7:2 0.1288
4 TAUGATE_7:A 0.3022
*RES
2 inst_127:ZN TAUNET_7:1 0.1405
3 TAUNET_7:1 TAUNET_7:2 0.0668
4 TAUNET_7:2 TAUGATE_7:A 0.3699
*END

