*SPEF "IEEE 1481-1998"
*DESIGN "changes"
*DATE "Tue Dec 02 20:36:33 2014"
*VENDOR "TAU 2015 Contest"
*PROGRAM "Benchmark Parasitic Generator"
*VERSION "0.0"
*DESIGN_FLOW "NETLIST_TYPE_VERILOG"
*DIVIDER /
*DELIMITER :
*BUS_DELIMITER [ ]
*T_UNIT 1 PS
*C_UNIT 1 FF
*R_UNIT 1 KOHM
*L_UNIT 1 UH

*D_NET TAUNET_9 1.7439
*CONN
*I inst_118:ZN O
*I TAUGATE_9:A I
*CAP
1 inst_118:ZN 0.2611
2 TAUNET_9:1 0.4098
3 TAUNET_9:2 0.5009
4 TAUNET_9:3 0.2843
5 TAUGATE_9:A 0.2878
*RES
2 inst_118:ZN TAUNET_9:1 0.1659
3 TAUNET_9:1 TAUNET_9:2 0.2742
4 TAUNET_9:2 TAUNET_9:3 0.3494
5 TAUNET_9:3 TAUGATE_9:A 0.1485
*END

*D_NET TAUNET_5 1.3760
*CONN
*I inst_10:ZN O
*I TAUGATE_5:A I
*CAP
1 inst_10:ZN 0.2110
2 TAUNET_5:1 0.3070
3 TAUNET_5:2 0.3583
4 TAUNET_5:3 0.1395
5 TAUNET_5:4 0.0646
6 TAUNET_5:5 0.0794
7 TAUGATE_5:A 0.2161
*RES
2 inst_10:ZN TAUNET_5:1 0.1614
3 TAUNET_5:1 TAUNET_5:2 0.3312
4 TAUNET_5:2 TAUNET_5:3 0.3755
5 TAUNET_5:3 TAUNET_5:4 0.4644
6 TAUNET_5:4 TAUNET_5:5 0.4559
7 TAUNET_5:5 TAUGATE_5:A 0.4050
*END

*D_NET v13_D_7 0.4849
*CONN
*I TAUGATE_5:Z O
*P v13_D_7 O
*CAP
1 TAUGATE_5:Z 0.1670
2 v13_D_7:1 0.2440
3 v13_D_7:2 0.0332
4 v13_D_7 0.0406
*RES
2 TAUGATE_5:Z v13_D_7:1 0.2732
3 v13_D_7:1 v13_D_7:2 0.0073
4 v13_D_7:2 v13_D_7 0.1308
*END

*D_NET TAUNET_8 1.8161
*CONN
*I TAUGATE_1:Z O
*I TAUGATE_8:A I
*CAP
1 TAUGATE_1:Z 0.2909
2 TAUNET_8:1 0.0740
3 TAUNET_8:2 0.4871
4 TAUNET_8:3 0.4951
5 TAUNET_8:4 0.4125
6 TAUGATE_8:A 0.0565
*RES
2 TAUGATE_1:Z TAUNET_8:1 0.1285
3 TAUNET_8:1 TAUNET_8:2 0.0292
4 TAUNET_8:2 TAUNET_8:3 0.2926
5 TAUNET_8:3 TAUNET_8:4 0.4507
6 TAUNET_8:4 TAUGATE_8:A 0.3356
*END

*D_NET net_122 1.9602
*CONN
*I TAUGATE_8:Z O
*I inst_84:A1 I
*CAP
1 TAUGATE_8:Z 0.3845
2 net_122:1 0.3056
3 net_122:2 0.3464
4 net_122:3 0.0305
5 net_122:4 0.2383
6 net_122:5 0.4020
7 inst_84:A1 0.2529
*RES
2 TAUGATE_8:Z net_122:1 0.2665
3 net_122:1 net_122:2 0.4354
4 net_122:2 net_122:3 0.1977
5 net_122:3 net_122:4 0.0788
6 net_122:4 net_122:5 0.3276
7 net_122:5 inst_84:A1 0.3833
*END

*D_NET net_77 2.0296
*CONN
*I TAUGATE_9:Z O
*I inst_5:A2 I
*I inst_92:A1 I
*CAP
1 TAUGATE_9:Z 0.0716
2 net_77:1 0.1922
3 net_77:2 0.2805
4 net_77:3 0.1322
5 inst_92:A1 0.1905
6 net_77:4 0.2211
7 net_77:5 0.1955
8 net_77:6 0.1868
9 net_77:7 0.4889
10 inst_5:A2 0.0703
*RES
2 TAUGATE_9:Z net_77:1 0.4017
3 net_77:1 net_77:2 0.4680
4 net_77:2 net_77:3 0.2976
5 net_77:3 inst_92:A1 0.2331
6 net_77:2 net_77:4 0.3298
7 net_77:4 net_77:5 0.4131
8 net_77:5 net_77:6 0.3310
9 net_77:6 net_77:7 0.2621
10 net_77:7 inst_5:A2 0.4792
*END

*D_NET TAUNET_6 1.1591
*CONN
*I inst_14:ZN O
*I TAUGATE_6:A I
*CAP
1 inst_14:ZN 0.0717
2 TAUNET_6:1 0.4035
3 TAUNET_6:2 0.0219
4 TAUNET_6:3 0.0830
5 TAUNET_6:4 0.4539
6 TAUGATE_6:A 0.1250
*RES
2 inst_14:ZN TAUNET_6:1 0.3196
3 TAUNET_6:1 TAUNET_6:2 0.4976
4 TAUNET_6:2 TAUNET_6:3 0.3591
5 TAUNET_6:3 TAUNET_6:4 0.2780
6 TAUNET_6:4 TAUGATE_6:A 0.2022
*END

*D_NET net_125 2.5322
*CONN
*I TAUGATE_6:Z O
*I inst_62:A2 I
*CAP
1 TAUGATE_6:Z 0.4382
2 net_125:1 0.4055
3 net_125:2 0.4519
4 net_125:3 0.4658
5 net_125:4 0.3690
6 inst_62:A2 0.4019
*RES
2 TAUGATE_6:Z net_125:1 0.0632
3 net_125:1 net_125:2 0.2503
4 net_125:2 net_125:3 0.4700
5 net_125:3 net_125:4 0.3789
6 net_125:4 inst_62:A2 0.3545
*END

*D_NET net_45 1.0398
*CONN
*I TAUGATE_7:Z O
*I inst_36:A1 I
*CAP
1 TAUGATE_7:Z 0.4316
2 net_45:1 0.4734
3 net_45:2 0.0376
4 inst_36:A1 0.0972
*RES
2 TAUGATE_7:Z net_45:1 0.3594
3 net_45:1 net_45:2 0.0525
4 net_45:2 inst_36:A1 0.3248
*END

*D_NET TAUNET_7 1.7532
*CONN
*I inst_67:ZN O
*I TAUGATE_7:A I
*CAP
1 inst_67:ZN 0.1267
2 TAUNET_7:1 0.2434
3 TAUNET_7:2 0.3726
4 TAUNET_7:3 0.2980
5 TAUNET_7:4 0.2454
6 TAUGATE_7:A 0.4670
*RES
2 inst_67:ZN TAUNET_7:1 0.1921
3 TAUNET_7:1 TAUNET_7:2 0.1376
4 TAUNET_7:2 TAUNET_7:3 0.4443
5 TAUNET_7:3 TAUNET_7:4 0.1288
6 TAUNET_7:4 TAUGATE_7:A 0.3022
*END

