*SPEF "IEEE 1481-1998"
*DESIGN "changes"
*DATE "Tue Dec 02 20:36:36 2014"
*VENDOR "TAU 2015 Contest"
*PROGRAM "Benchmark Parasitic Generator"
*VERSION "0.0"
*DESIGN_FLOW "NETLIST_TYPE_VERILOG"
*DIVIDER /
*DELIMITER :
*BUS_DELIMITER [ ]
*T_UNIT 1 PS
*C_UNIT 1 FF
*R_UNIT 1 KOHM
*L_UNIT 1 UH

*D_NET net_107 1.7439
*CONN
*I inst_25:ZN O
*I inst_91:A2 I
*CAP
1 inst_25:ZN 0.2611
2 net_107:1 0.4098
3 net_107:2 0.5009
4 net_107:3 0.2843
5 inst_91:A2 0.2878
*RES
2 inst_25:ZN net_107:1 0.1659
3 net_107:1 net_107:2 0.2742
4 net_107:2 net_107:3 0.3494
5 net_107:3 inst_91:A2 0.1485
*END

*D_NET net_47 1.3760
*CONN
*I inst_69:ZN O
*I inst_151:A3 I
*CAP
1 inst_69:ZN 0.2110
2 net_47:1 0.3070
3 net_47:2 0.3583
4 net_47:3 0.1395
5 net_47:4 0.0646
6 net_47:5 0.0794
7 inst_151:A3 0.2161
*RES
2 inst_69:ZN net_47:1 0.1614
3 net_47:1 net_47:2 0.3312
4 net_47:2 net_47:3 0.3755
5 net_47:3 net_47:4 0.4644
6 net_47:4 net_47:5 0.4559
7 net_47:5 inst_151:A3 0.4050
*END

*D_NET v13_D_7 0.4849
*CONN
*I inst_10:ZN O
*P v13_D_7 O
*CAP
1 inst_10:ZN 0.1670
2 v13_D_7:1 0.2440
3 v13_D_7:2 0.0332
4 v13_D_7 0.0406
*RES
2 inst_10:ZN v13_D_7:1 0.2732
3 v13_D_7:1 v13_D_7:2 0.0073
4 v13_D_7:2 v13_D_7 0.1308
*END

*D_NET net_116 4.4076
*CONN
*I inst_30:ZN O
*I inst_8:A3 I
*I inst_22:A2 I
*I inst_79:A1 I
*CAP
1 inst_30:ZN 0.2909
2 net_116:1 0.0740
3 net_116:2 0.4871
4 net_116:3 0.4951
5 net_116:4 0.4125
6 inst_8:A3 0.0565
7 net_116:5 0.4708
8 net_116:6 0.3056
9 net_116:7 0.3464
10 net_116:8 0.0305
11 inst_22:A2 0.2383
12 net_116:9 0.3833
13 net_116:10 0.3292
14 net_116:11 0.0716
15 net_116:12 0.2236
16 inst_79:A1 0.1922
*RES
2 inst_30:ZN net_116:1 0.1285
3 net_116:1 net_116:2 0.0292
4 net_116:2 net_116:3 0.2926
5 net_116:3 net_116:4 0.4507
6 net_116:4 inst_8:A3 0.3356
7 net_116:4 net_116:5 0.4020
8 net_116:5 net_116:6 0.2529
9 net_116:6 net_116:7 0.2665
10 net_116:7 net_116:8 0.4354
11 net_116:8 inst_22:A2 0.1977
12 net_116:1 net_116:9 0.2805
13 net_116:9 net_116:10 0.1322
14 net_116:10 net_116:11 0.1905
15 net_116:11 net_116:12 0.4017
16 net_116:12 inst_79:A1 0.4680
*END

*D_NET net_30 1.2308
*CONN
*I inst_61:ZN O
*I inst_40:A1 I
*CAP
1 inst_61:ZN 0.2331
2 net_30:1 0.3943
3 net_30:2 0.2211
4 net_30:3 0.1955
5 inst_40:A1 0.1868
*RES
2 inst_61:ZN net_30:1 0.4889
3 net_30:1 net_30:2 0.0703
4 net_30:2 net_30:3 0.3298
5 net_30:3 inst_40:A1 0.4131
*END

*D_NET net_61 1.4221
*CONN
*I inst_77:ZN O
*I inst_85:A2 I
*CAP
1 inst_77:ZN 0.2621
2 net_61:1 0.1808
3 net_61:2 0.0717
4 net_61:3 0.3990
5 net_61:4 0.4035
6 net_61:5 0.0219
7 inst_85:A2 0.0830
*RES
2 inst_77:ZN net_61:1 0.4539
3 net_61:1 net_61:2 0.1250
4 net_61:2 net_61:3 0.3196
5 net_61:3 net_61:4 0.4976
6 net_61:4 net_61:5 0.3591
7 net_61:5 inst_85:A2 0.2780
*END

*D_NET net_132 14.2535
*CONN
*I inst_149:QN O
*I inst_20:A1 I
*I inst_7:A1 I
*I inst_34:A1 I
*I inst_78:A1 I
*I inst_32:A2 I
*I inst_29:A2 I
*I inst_23:A1 I
*I inst_15:A2 I
*I inst_46:A1 I
*I inst_55:A1 I
*I inst_11:A1 I
*I inst_13:A2 I
*CAP
1 inst_149:QN 0.1593
2 net_132:1 0.3498
3 net_132:2 0.4055
4 net_132:3 0.4519
5 net_132:4 0.4658
6 net_132:5 0.3690
7 inst_32:A2 0.4019
8 net_132:6 0.0376
9 net_132:7 0.0972
10 net_132:8 0.3594
11 net_132:9 0.0525
12 net_132:10 0.3248
13 inst_7:A1 0.2597
14 net_132:11 0.4443
15 net_132:12 0.1288
16 inst_34:A1 0.3022
17 net_132:13 0.4814
18 net_132:14 0.1341
19 net_132:15 0.3915
20 net_132:16 0.0282
21 inst_78:A1 0.3089
22 net_132:17 0.3643
23 net_132:18 0.2288
24 net_132:19 0.0666
25 inst_20:A1 0.3854
26 net_132:20 0.2154
27 net_132:21 0.4921
28 net_132:22 0.1648
29 inst_29:A2 0.1855
30 net_132:23 0.1494
31 net_132:24 0.3290
32 net_132:25 0.1620
33 net_132:26 0.0029
34 net_132:27 0.2883
35 inst_23:A1 0.1903
36 net_132:28 0.4104
37 inst_15:A2 0.0649
38 net_132:29 0.4606
39 net_132:30 0.3388
40 inst_46:A1 0.4657
41 net_132:31 0.0395
42 net_132:32 0.3644
43 net_132:33 0.0829
44 net_132:34 0.1977
45 inst_55:A1 0.4694
46 net_132:35 0.0986
47 net_132:36 0.2243
48 inst_11:A1 0.1286
49 net_132:37 0.2613
50 net_132:38 0.3587
51 net_132:39 0.1869
52 net_132:40 0.4974
53 net_132:41 0.3047
54 inst_13:A2 0.1200
*RES
2 inst_149:QN net_132:1 0.0632
3 net_132:1 net_132:2 0.2503
4 net_132:2 net_132:3 0.4700
5 net_132:3 net_132:4 0.3789
6 net_132:4 net_132:5 0.3545
7 net_132:5 inst_32:A2 0.1033
8 net_132:2 net_132:6 0.1267
9 net_132:6 net_132:7 0.3840
10 net_132:7 net_132:8 0.2434
11 net_132:8 net_132:9 0.3726
12 net_132:9 net_132:10 0.2980
13 net_132:10 inst_7:A1 0.2454
14 net_132:4 net_132:11 0.1405
15 net_132:11 net_132:12 0.0668
16 net_132:12 inst_34:A1 0.3699
17 net_132:11 net_132:13 0.0253
18 net_132:13 net_132:14 0.3105
19 net_132:14 net_132:15 0.1881
20 net_132:15 net_132:16 0.2034
21 net_132:16 inst_78:A1 0.1592
22 net_132:11 net_132:17 0.3580
23 net_132:17 net_132:18 0.3774
24 net_132:18 net_132:19 0.2731
25 net_132:19 inst_20:A1 0.1525
26 net_132:2 net_132:20 0.0112
27 net_132:20 net_132:21 0.3530
28 net_132:21 net_132:22 0.1128
29 net_132:22 inst_29:A2 0.2239
30 net_132:5 net_132:23 0.4381
31 net_132:23 net_132:24 0.3484
32 net_132:24 net_132:25 0.0801
33 net_132:25 net_132:26 0.1392
34 net_132:26 net_132:27 0.1891
35 net_132:27 inst_23:A1 0.0464
36 net_132:2 net_132:28 0.0510
37 net_132:28 inst_15:A2 0.1600
38 net_132:28 net_132:29 0.3595
39 net_132:29 net_132:30 0.2471
40 net_132:30 inst_46:A1 0.0832
41 net_132:4 net_132:31 0.3877
42 net_132:31 net_132:32 0.3882
43 net_132:32 net_132:33 0.4950
44 net_132:33 net_132:34 0.0413
45 net_132:34 inst_55:A1 0.4651
46 net_132:25 net_132:35 0.4269
47 net_132:35 net_132:36 0.2482
48 net_132:36 inst_11:A1 0.2195
49 net_132:12 net_132:37 0.4969
50 net_132:37 net_132:38 0.1210
51 net_132:38 net_132:39 0.1733
52 net_132:39 net_132:40 0.1014
53 net_132:40 net_132:41 0.0283
54 net_132:41 inst_13:A2 0.2763
*END

*D_NET net_54 1.7303
*CONN
*I inst_17:ZN O
*I inst_72:A1 I
*I inst_35:A2 I
*CAP
1 inst_17:ZN 0.3177
2 net_54:1 0.3390
3 net_54:2 0.2046
4 net_54:3 0.3404
5 inst_35:A2 0.1317
6 net_54:4 0.1253
7 inst_72:A1 0.2716
*RES
2 inst_17:ZN net_54:1 0.3617
3 net_54:1 net_54:2 0.0856
4 net_54:2 net_54:3 0.3629
5 net_54:3 inst_35:A2 0.2821
6 net_54:3 net_54:4 0.3735
7 net_54:4 inst_72:A1 0.1079
*END

*D_NET net_91 5.2314
*CONN
*I inst_54:ZN O
*I inst_44:A2 I
*I inst_42:A2 I
*I inst_152:A2 I
*I inst_43:A2 I
*I inst_9:A2 I
*I inst_10:A2 I
*CAP
1 inst_54:ZN 0.2907
2 net_91:1 0.4966
3 inst_43:A2 0.4101
4 net_91:2 0.0485
5 inst_42:A2 0.4602
6 net_91:3 0.3972
7 net_91:4 0.4228
8 net_91:5 0.2443
9 net_91:6 0.2458
10 inst_152:A2 0.3734
11 net_91:7 0.4436
12 inst_44:A2 0.1981
13 net_91:8 0.0423
14 inst_9:A2 0.2861
15 net_91:9 0.0209
16 net_91:10 0.4380
17 inst_10:A2 0.4130
*RES
2 inst_54:ZN net_91:1 0.2702
3 net_91:1 inst_43:A2 0.2135
4 net_91:1 net_91:2 0.4262
5 net_91:2 inst_42:A2 0.2009
6 net_91:2 net_91:3 0.1567
7 net_91:3 net_91:4 0.1247
8 net_91:4 net_91:5 0.2439
9 net_91:5 net_91:6 0.2588
10 net_91:6 inst_152:A2 0.4474
11 net_91:5 net_91:7 0.3275
12 net_91:7 inst_44:A2 0.0169
13 net_91:3 net_91:8 0.4278
14 net_91:8 inst_9:A2 0.3875
15 net_91:7 net_91:9 0.4990
16 net_91:9 net_91:10 0.2134
17 net_91:10 inst_10:A2 0.1115
*END

*D_NET net_105 1.6629
*CONN
*I inst_64:ZN O
*I inst_37:A1 I
*CAP
1 inst_64:ZN 0.3666
2 net_105:1 0.4464
3 net_105:2 0.2438
4 net_105:3 0.2969
5 inst_37:A1 0.3091
*RES
2 inst_64:ZN net_105:1 0.5006
3 net_105:1 net_105:2 0.2264
4 net_105:2 net_105:3 0.3973
5 net_105:3 inst_37:A1 0.2044
*END

*D_NET net_62 3.4432
*CONN
*I inst_18:ZN O
*I inst_24:A4 I
*I inst_151:A4 I
*I inst_71:A2 I
*CAP
1 inst_18:ZN 0.3886
2 net_62:1 0.2468
3 net_62:2 0.4002
4 net_62:3 0.3652
5 inst_24:A4 0.1857
6 net_62:4 0.1026
7 net_62:5 0.1939
8 inst_151:A4 0.1095
9 net_62:6 0.3663
10 net_62:7 0.2540
11 net_62:8 0.0526
12 net_62:9 0.2388
13 net_62:10 0.1787
14 inst_71:A2 0.3603
*RES
2 inst_18:ZN net_62:1 0.0562
3 net_62:1 net_62:2 0.0882
4 net_62:2 net_62:3 0.4386
5 net_62:3 inst_24:A4 0.2715
6 net_62:1 net_62:4 0.0212
7 net_62:4 net_62:5 0.1417
8 net_62:5 inst_151:A4 0.2190
9 net_62:1 net_62:6 0.0603
10 net_62:6 net_62:7 0.0863
11 net_62:7 net_62:8 0.3102
12 net_62:8 net_62:9 0.1239
13 net_62:9 net_62:10 0.2473
14 net_62:10 inst_71:A2 0.0055
*END

*D_NET net_106 1.2459
*CONN
*I inst_52:ZN O
*I inst_91:A1 I
*CAP
1 inst_52:ZN 0.2412
2 net_106:1 0.4441
3 net_106:2 0.4218
4 net_106:3 0.0848
5 net_106:4 0.0266
6 inst_91:A1 0.0274
*RES
2 inst_52:ZN net_106:1 0.4218
3 net_106:1 net_106:2 0.2061
4 net_106:2 net_106:3 0.2110
5 net_106:3 net_106:4 0.4583
6 net_106:4 inst_91:A1 0.3985
*END

*D_NET net_55 1.9898
*CONN
*I inst_72:ZN O
*I inst_41:A3 I
*CAP
1 inst_72:ZN 0.0725
2 net_55:1 0.3124
3 net_55:2 0.3685
4 net_55:3 0.4317
5 net_55:4 0.1801
6 net_55:5 0.2826
7 inst_41:A3 0.3420
*RES
2 inst_72:ZN net_55:1 0.0965
3 net_55:1 net_55:2 0.2555
4 net_55:2 net_55:3 0.1304
5 net_55:3 net_55:4 0.3675
6 net_55:4 net_55:5 0.4634
7 net_55:5 inst_41:A3 0.2869
*END

*D_NET net_99 0.5511
*CONN
*I inst_91:ZN O
*I inst_92:A2 I
*CAP
1 inst_91:ZN 0.1182
2 net_99:1 0.0608
3 inst_92:A2 0.3721
*RES
2 inst_91:ZN net_99:1 0.4648
3 net_99:1 inst_92:A2 0.2376
*END

*D_NET net_129 2.1170
*CONN
*I inst_11:ZN O
*I inst_150:A4 I
*I inst_70:A2 I
*I inst_30:A2 I
*CAP
1 inst_11:ZN 0.3081
2 net_129:1 0.0264
3 net_129:2 0.2502
4 inst_150:A4 0.2506
5 net_129:3 0.2747
6 inst_70:A2 0.1704
7 net_129:4 0.3621
8 net_129:5 0.1254
9 inst_30:A2 0.3490
*RES
2 inst_11:ZN net_129:1 0.4486
3 net_129:1 net_129:2 0.0641
4 net_129:2 inst_150:A4 0.0138
5 net_129:1 net_129:3 0.2303
6 net_129:3 inst_70:A2 0.0121
7 net_129:1 net_129:4 0.4751
8 net_129:4 net_129:5 0.3195
9 net_129:5 inst_30:A2 0.4748
*END

*D_NET net_140 1.3487
*CONN
*I inst_55:ZN O
*I inst_64:A1 I
*CAP
1 inst_55:ZN 0.2036
2 net_140:1 0.0185
3 net_140:2 0.3777
4 net_140:3 0.2437
5 net_140:4 0.3641
6 inst_64:A1 0.1411
*RES
2 inst_55:ZN net_140:1 0.2452
3 net_140:1 net_140:2 0.2723
4 net_140:2 net_140:3 0.2079
5 net_140:3 net_140:4 0.2449
6 net_140:4 inst_64:A1 0.0406
*END

*D_NET net_118 0.0517
*CONN
*I inst_73:ZN O
*I inst_48:A1 I
*CAP
1 inst_73:ZN 0.0078
2 net_118:1 0.0264
3 inst_48:A1 0.0174
*RES
2 inst_73:ZN net_118:1 0.1906
3 net_118:1 inst_48:A1 0.1553
*END

*D_NET net_119 1.3954
*CONN
*I inst_8:ZN O
*I inst_9:A1 I
*CAP
1 inst_8:ZN 0.2944
2 net_119:1 0.0209
3 net_119:2 0.1182
4 net_119:3 0.1067
5 net_119:4 0.4881
6 inst_9:A1 0.3672
*RES
2 inst_8:ZN net_119:1 0.4629
3 net_119:1 net_119:2 0.1157
4 net_119:2 net_119:3 0.1901
5 net_119:3 net_119:4 0.2138
6 net_119:4 inst_9:A1 0.5008
*END

*D_NET net_98 1.2604
*CONN
*I inst_44:ZN O
*I inst_149:D I
*CAP
1 inst_44:ZN 0.3428
2 net_98:1 0.2733
3 net_98:2 0.1266
4 net_98:3 0.3814
5 inst_149:D 0.1363
*RES
2 inst_44:ZN net_98:1 0.3277
3 net_98:1 net_98:2 0.3144
4 net_98:2 net_98:3 0.4503
5 net_98:3 inst_149:D 0.3676
*END

*D_NET net_23 12.8832
*CONN
*I inst_148:QN O
*I inst_19:A1 I
*I inst_12:A1 I
*I inst_2:A2 I
*I inst_153:A1 I
*I inst_37:A2 I
*I inst_17:A1 I
*I inst_30:A1 I
*I inst_32:A1 I
*I inst_0:A1 I
*I inst_28:A3 I
*I inst_13:A1 I
*I inst_23:A2 I
*CAP
1 inst_148:QN 0.4423
2 net_23:1 0.4527
3 net_23:2 0.1465
4 inst_153:A1 0.1463
5 net_23:3 0.0715
6 net_23:4 0.1546
7 net_23:5 0.1861
8 net_23:6 0.4367
9 net_23:7 0.3452
10 inst_12:A1 0.0313
11 net_23:8 0.2603
12 net_23:9 0.2874
13 net_23:10 0.3072
14 inst_2:A2 0.2768
15 net_23:11 0.2138
16 net_23:12 0.4796
17 net_23:13 0.3806
18 inst_19:A1 0.4946
19 net_23:14 0.4103
20 net_23:15 0.0845
21 inst_37:A2 0.1888
22 net_23:16 0.0491
23 net_23:17 0.4137
24 net_23:18 0.3046
25 inst_17:A1 0.2987
26 net_23:19 0.0787
27 net_23:20 0.2007
28 net_23:21 0.2971
29 net_23:22 0.4025
30 inst_30:A1 0.5010
31 net_23:23 0.3761
32 net_23:24 0.0616
33 net_23:25 0.4298
34 inst_32:A1 0.2857
35 net_23:26 0.0036
36 net_23:27 0.1731
37 inst_0:A1 0.2737
38 net_23:28 0.0418
39 net_23:29 0.3671
40 net_23:30 0.3815
41 net_23:31 0.1458
42 inst_28:A3 0.4915
43 net_23:32 0.1477
44 inst_13:A1 0.4806
45 net_23:33 0.1100
46 net_23:34 0.2818
47 net_23:35 0.3290
48 inst_23:A2 0.1592
*RES
2 inst_148:QN net_23:1 0.4621
3 net_23:1 net_23:2 0.4065
4 net_23:2 inst_153:A1 0.0227
5 net_23:1 net_23:3 0.1217
6 net_23:3 net_23:4 0.0111
7 net_23:4 net_23:5 0.1222
8 net_23:5 net_23:6 0.0613
9 net_23:6 net_23:7 0.1692
10 net_23:7 inst_12:A1 0.4407
11 net_23:4 net_23:8 0.1679
12 net_23:8 net_23:9 0.2053
13 net_23:9 net_23:10 0.2140
14 net_23:10 inst_2:A2 0.3306
15 net_23:3 net_23:11 0.4608
16 net_23:11 net_23:12 0.4692
17 net_23:12 net_23:13 0.4766
18 net_23:13 inst_19:A1 0.0589
19 net_23:7 net_23:14 0.1436
20 net_23:14 net_23:15 0.1762
21 net_23:15 inst_37:A2 0.4748
22 net_23:1 net_23:16 0.2640
23 net_23:16 net_23:17 0.1831
24 net_23:17 net_23:18 0.4110
25 net_23:18 inst_17:A1 0.0191
26 net_23:16 net_23:19 0.3538
27 net_23:19 net_23:20 0.4649
28 net_23:20 net_23:21 0.0482
29 net_23:21 net_23:22 0.1062
30 net_23:22 inst_30:A1 0.2963
31 net_23:9 net_23:23 0.2634
32 net_23:23 net_23:24 0.0470
33 net_23:24 net_23:25 0.0745
34 net_23:25 inst_32:A1 0.1738
35 net_23:23 net_23:26 0.3095
36 net_23:26 net_23:27 0.4895
37 net_23:27 inst_0:A1 0.4033
38 net_23:19 net_23:28 0.0683
39 net_23:28 net_23:29 0.2135
40 net_23:29 net_23:30 0.4484
41 net_23:30 net_23:31 0.1379
42 net_23:31 inst_28:A3 0.1139
43 net_23:3 net_23:32 0.3473
44 net_23:32 inst_13:A1 0.1114
45 net_23:1 net_23:33 0.4236
46 net_23:33 net_23:34 0.3328
47 net_23:34 net_23:35 0.1906
48 net_23:35 inst_23:A2 0.5003
*END

*D_NET net_104 1.0480
*CONN
*I inst_41:ZN O
*I inst_43:A1 I
*CAP
1 inst_41:ZN 0.3044
2 net_104:1 0.0096
3 net_104:2 0.4963
4 inst_43:A1 0.2377
*RES
2 inst_41:ZN net_104:1 0.2571
3 net_104:1 net_104:2 0.3610
4 net_104:2 inst_43:A1 0.0042
*END

*D_NET net_12 3.9123
*CONN
*P v3 I
*I inst_15:A1 I
*I inst_28:A2 I
*I inst_11:A2 I
*I inst_154:A1 I
*CAP
1 v3 0.3841
2 net_12:1 0.2352
3 net_12:2 0.3112
4 net_12:3 0.1345
5 net_12:4 0.4134
6 inst_11:A2 0.0741
7 net_12:5 0.2343
8 net_12:6 0.1106
9 net_12:7 0.0283
10 inst_28:A2 0.2644
11 net_12:8 0.2939
12 inst_15:A1 0.2177
13 net_12:9 0.1825
14 net_12:10 0.4154
15 net_12:11 0.4205
16 inst_154:A1 0.1921
*RES
2 v3 net_12:1 0.4290
3 net_12:1 net_12:2 0.4891
4 net_12:2 net_12:3 0.0621
5 net_12:3 net_12:4 0.2122
6 net_12:4 inst_11:A2 0.2034
7 net_12:1 net_12:5 0.3395
8 net_12:5 net_12:6 0.4160
9 net_12:6 net_12:7 0.1311
10 net_12:7 inst_28:A2 0.1702
11 net_12:1 net_12:8 0.0520
12 net_12:8 inst_15:A1 0.1787
13 net_12:6 net_12:9 0.3303
14 net_12:9 net_12:10 0.0500
15 net_12:10 net_12:11 0.3450
16 net_12:11 inst_154:A1 0.2552
*END

*D_NET net_74 12.8541
*CONN
*P v0 I
*I inst_24:A3 I
*I inst_33:A2 I
*I inst_80:A1 I
*I inst_4:A3 I
*I inst_7:A2 I
*I inst_39:A2 I
*I inst_5:A4 I
*I inst_25:A3 I
*I inst_57:A1 I
*I inst_45:A2 I
*I inst_54:A1 I
*I inst_94:A2 I
*CAP
1 v0 0.3943
2 net_74:1 0.3586
3 inst_39:A2 0.1804
4 net_74:2 0.2910
5 inst_33:A2 0.3418
6 net_74:3 0.0258
7 net_74:4 0.0722
8 net_74:5 0.0268
9 net_74:6 0.0274
10 net_74:7 0.0955
11 inst_80:A1 0.0758
12 net_74:8 0.3531
13 net_74:9 0.0316
14 net_74:10 0.1823
15 inst_4:A3 0.0755
16 net_74:11 0.3020
17 inst_7:A2 0.3389
18 net_74:12 0.0122
19 net_74:13 0.2688
20 net_74:14 0.0936
21 net_74:15 0.3051
22 net_74:16 0.1197
23 inst_24:A3 0.2956
24 net_74:17 0.0610
25 net_74:18 0.4010
26 net_74:19 0.2910
27 net_74:20 0.3768
28 inst_5:A4 0.3083
29 net_74:21 0.4097
30 net_74:22 0.2418
31 net_74:23 0.4080
32 net_74:24 0.3118
33 inst_25:A3 0.4981
34 net_74:25 0.2150
35 net_74:26 0.0109
36 net_74:27 0.1830
37 net_74:28 0.2298
38 inst_57:A1 0.0712
39 net_74:29 0.2677
40 net_74:30 0.2426
41 net_74:31 0.1466
42 net_74:32 0.2784
43 net_74:33 0.2008
44 inst_45:A2 0.3776
45 net_74:34 0.3242
46 net_74:35 0.2336
47 net_74:36 0.3863
48 net_74:37 0.2365
49 inst_54:A1 0.1037
50 net_74:38 0.2417
51 net_74:39 0.2444
52 net_74:40 0.4262
53 net_74:41 0.3737
54 net_74:42 0.3015
55 inst_94:A2 0.1830
*RES
2 v0 net_74:1 0.2132
3 net_74:1 inst_39:A2 0.3448
4 net_74:1 net_74:2 0.0277
5 net_74:2 inst_33:A2 0.2232
6 net_74:2 net_74:3 0.0730
7 net_74:3 net_74:4 0.2996
8 net_74:4 net_74:5 0.1500
9 net_74:5 net_74:6 0.2720
10 net_74:6 net_74:7 0.0605
11 net_74:7 inst_80:A1 0.1555
12 net_74:7 net_74:8 0.3163
13 net_74:8 net_74:9 0.3515
14 net_74:9 net_74:10 0.2983
15 net_74:10 inst_4:A3 0.4269
16 net_74:1 net_74:11 0.4000
17 net_74:11 inst_7:A2 0.0188
18 net_74:11 net_74:12 0.2210
19 net_74:12 net_74:13 0.0970
20 net_74:13 net_74:14 0.2798
21 net_74:14 net_74:15 0.3150
22 net_74:15 net_74:16 0.0137
23 net_74:16 inst_24:A3 0.2108
24 net_74:7 net_74:17 0.1250
25 net_74:17 net_74:18 0.3526
26 net_74:18 net_74:19 0.3715
27 net_74:19 net_74:20 0.3144
28 net_74:20 inst_5:A4 0.3618
29 net_74:9 net_74:21 0.3134
30 net_74:21 net_74:22 0.4059
31 net_74:22 net_74:23 0.1396
32 net_74:23 net_74:24 0.0910
33 net_74:24 inst_25:A3 0.1278
34 net_74:15 net_74:25 0.0044
35 net_74:25 net_74:26 0.1986
36 net_74:26 net_74:27 0.0476
37 net_74:27 net_74:28 0.0521
38 net_74:28 inst_57:A1 0.0546
39 net_74:15 net_74:29 0.2937
40 net_74:29 net_74:30 0.0093
41 net_74:30 net_74:31 0.2822
42 net_74:31 net_74:32 0.4311
43 net_74:32 net_74:33 0.0309
44 net_74:33 inst_45:A2 0.1138
45 net_74:25 net_74:34 0.3572
46 net_74:34 net_74:35 0.2211
47 net_74:35 net_74:36 0.2185
48 net_74:36 net_74:37 0.2266
49 net_74:37 inst_54:A1 0.2538
50 net_74:9 net_74:38 0.3035
51 net_74:38 net_74:39 0.4053
52 net_74:39 net_74:40 0.0863
53 net_74:40 net_74:41 0.2362
54 net_74:41 net_74:42 0.1365
55 net_74:42 inst_94:A2 0.0277
*END

*D_NET v13_D_12 0.8486
*CONN
*I inst_5:ZN O
*P v13_D_12 O
*CAP
1 inst_5:ZN 0.2912
2 v13_D_12:1 0.3711
3 v13_D_12:2 0.0512
4 v13_D_12 0.1351
*RES
2 inst_5:ZN v13_D_12:1 0.0984
3 v13_D_12:1 v13_D_12:2 0.0368
4 v13_D_12:2 v13_D_12 0.4376
*END

*D_NET net_53 2.5993
*CONN
*I inst_16:ZN O
*I inst_72:A2 I
*I inst_77:A2 I
*CAP
1 inst_16:ZN 0.1283
2 net_53:1 0.3234
3 net_53:2 0.4610
4 inst_72:A2 0.4832
5 net_53:3 0.4556
6 net_53:4 0.1835
7 net_53:5 0.0020
8 net_53:6 0.2614
9 inst_77:A2 0.3010
*RES
2 inst_16:ZN net_53:1 0.2776
3 net_53:1 net_53:2 0.3781
4 net_53:2 inst_72:A2 0.3766
5 net_53:1 net_53:3 0.2164
6 net_53:3 net_53:4 0.4372
7 net_53:4 net_53:5 0.1158
8 net_53:5 net_53:6 0.1153
9 net_53:6 inst_77:A2 0.3810
*END

*D_NET v13_D_8 1.4651
*CONN
*I inst_4:ZN O
*P v13_D_8 O
*CAP
1 inst_4:ZN 0.1662
2 v13_D_8:1 0.2541
3 v13_D_8:2 0.2497
4 v13_D_8:3 0.4625
5 v13_D_8:4 0.2343
6 v13_D_8 0.0981
*RES
2 inst_4:ZN v13_D_8:1 0.3461
3 v13_D_8:1 v13_D_8:2 0.2382
4 v13_D_8:2 v13_D_8:3 0.4109
5 v13_D_8:3 v13_D_8:4 0.0945
6 v13_D_8:4 v13_D_8 0.2326
*END

*D_NET net_72 0.7650
*CONN
*I inst_81:ZN O
*I inst_86:A2 I
*CAP
1 inst_81:ZN 0.2674
2 net_72:1 0.0414
3 net_72:2 0.2455
4 net_72:3 0.1970
5 inst_86:A2 0.0138
*RES
2 inst_81:ZN net_72:1 0.4527
3 net_72:1 net_72:2 0.3131
4 net_72:2 net_72:3 0.4392
5 net_72:3 inst_86:A2 0.4048
*END

*D_NET net_122 1.7566
*CONN
*I inst_76:ZN O
*I inst_84:A1 I
*CAP
1 inst_76:ZN 0.3283
2 net_122:1 0.4199
3 net_122:2 0.3736
4 net_122:3 0.3306
5 inst_84:A1 0.3042
*RES
2 inst_76:ZN net_122:1 0.1317
3 net_122:1 net_122:2 0.1481
4 net_122:2 net_122:3 0.2485
5 net_122:3 inst_84:A1 0.2201
*END

*D_NET net_70 0.7087
*CONN
*I inst_78:ZN O
*I inst_82:A2 I
*CAP
1 inst_78:ZN 0.3013
2 net_70:1 0.0262
3 inst_82:A2 0.3812
*RES
2 inst_78:ZN net_70:1 0.0656
3 net_70:1 inst_82:A2 0.1550
*END

*D_NET net_7 1.3180
*CONN
*I inst_45:ZN O
*I inst_59:A2 I
*CAP
1 inst_45:ZN 0.1418
2 net_7:1 0.3805
3 net_7:2 0.2523
4 net_7:3 0.0497
5 inst_59:A2 0.4938
*RES
2 inst_45:ZN net_7:1 0.3913
3 net_7:1 net_7:2 0.2131
4 net_7:2 net_7:3 0.3201
5 net_7:3 inst_59:A2 0.0320
*END

*D_NET net_130 2.1105
*CONN
*I inst_38:ZN O
*I inst_88:A1 I
*CAP
1 inst_38:ZN 0.3378
2 net_130:1 0.2454
3 net_130:2 0.4527
4 net_130:3 0.2663
5 net_130:4 0.3641
6 net_130:5 0.1740
7 inst_88:A1 0.2701
*RES
2 inst_38:ZN net_130:1 0.3351
3 net_130:1 net_130:2 0.4105
4 net_130:2 net_130:3 0.3004
5 net_130:3 net_130:4 0.3665
6 net_130:4 net_130:5 0.1341
7 net_130:5 inst_88:A1 0.0859
*END

*D_NET net_52 0.5333
*CONN
*I inst_3:ZN O
*I inst_86:A1 I
*CAP
1 inst_3:ZN 0.3812
2 net_52:1 0.1227
3 inst_86:A1 0.0294
*RES
2 inst_3:ZN net_52:1 0.0059
3 net_52:1 inst_86:A1 0.3552
*END

*D_NET net_127 2.1906
*CONN
*I inst_23:ZN O
*I inst_63:A1 I
*CAP
1 inst_23:ZN 0.1840
2 net_127:1 0.3573
3 net_127:2 0.4559
4 net_127:3 0.3575
5 net_127:4 0.1715
6 net_127:5 0.3050
7 inst_63:A1 0.3594
*RES
2 inst_23:ZN net_127:1 0.4902
3 net_127:1 net_127:2 0.4716
4 net_127:2 net_127:3 0.2112
5 net_127:3 net_127:4 0.1762
6 net_127:4 net_127:5 0.1166
7 net_127:5 inst_63:A1 0.1660
*END

*D_NET net_113 1.7572
*CONN
*I inst_48:ZN O
*I inst_49:A1 I
*CAP
1 inst_48:ZN 0.2908
2 net_113:1 0.3308
3 net_113:2 0.4080
4 net_113:3 0.4669
5 net_113:4 0.1932
6 inst_49:A1 0.0675
*RES
2 inst_48:ZN net_113:1 0.0053
3 net_113:1 net_113:2 0.1459
4 net_113:2 net_113:3 0.0437
5 net_113:3 net_113:4 0.4598
6 net_113:4 inst_49:A1 0.3838
*END

*D_NET net_26 7.3866
*CONN
*P v4 I
*I inst_1:A2 I
*I inst_30:A3 I
*I inst_28:A1 I
*I inst_150:A1 I
*I inst_37:A3 I
*CAP
1 v4 0.3263
2 net_26:1 0.4683
3 net_26:2 0.1543
4 net_26:3 0.4873
5 net_26:4 0.1669
6 net_26:5 0.4800
7 inst_28:A1 0.4518
8 net_26:6 0.3565
9 net_26:7 0.4074
10 net_26:8 0.4309
11 inst_30:A3 0.4474
12 net_26:9 0.1512
13 net_26:10 0.1368
14 net_26:11 0.4493
15 net_26:12 0.4663
16 inst_1:A2 0.2866
17 net_26:13 0.1883
18 net_26:14 0.3075
19 net_26:15 0.0604
20 inst_150:A1 0.3908
21 net_26:16 0.3010
22 net_26:17 0.1515
23 net_26:18 0.0492
24 inst_37:A3 0.2707
*RES
2 v4 net_26:1 0.0570
3 net_26:1 net_26:2 0.4909
4 net_26:2 net_26:3 0.0572
5 net_26:3 net_26:4 0.5008
6 net_26:4 net_26:5 0.1013
7 net_26:5 inst_28:A1 0.2457
8 net_26:5 net_26:6 0.2931
9 net_26:6 net_26:7 0.2848
10 net_26:7 net_26:8 0.2246
11 net_26:8 inst_30:A3 0.3320
12 net_26:7 net_26:9 0.1873
13 net_26:9 net_26:10 0.1599
14 net_26:10 net_26:11 0.3589
15 net_26:11 net_26:12 0.4697
16 net_26:12 inst_1:A2 0.4844
17 net_26:1 net_26:13 0.2921
18 net_26:13 net_26:14 0.4162
19 net_26:14 net_26:15 0.1285
20 net_26:15 inst_150:A1 0.0491
21 net_26:12 net_26:16 0.0711
22 net_26:16 net_26:17 0.2365
23 net_26:17 net_26:18 0.0021
24 net_26:18 inst_37:A3 0.2080
*END

*D_NET net_76 2.7726
*CONN
*I inst_71:ZN O
*I inst_5:A1 I
*I inst_4:A1 I
*CAP
1 inst_71:ZN 0.4886
2 net_76:1 0.4404
3 net_76:2 0.3187
4 net_76:3 0.4272
5 net_76:4 0.0224
6 inst_4:A1 0.4026
7 net_76:5 0.2614
8 net_76:6 0.1530
9 inst_5:A1 0.2582
*RES
2 inst_71:ZN net_76:1 0.2784
3 net_76:1 net_76:2 0.1803
4 net_76:2 net_76:3 0.0882
5 net_76:3 net_76:4 0.2924
6 net_76:4 inst_4:A1 0.4780
7 net_76:4 net_76:5 0.4484
8 net_76:5 net_76:6 0.0762
9 net_76:6 inst_5:A1 0.1986
*END

*D_NET net_13 1.9784
*CONN
*I inst_15:ZN O
*I inst_31:A1 I
*CAP
1 inst_15:ZN 0.3950
2 net_13:1 0.4255
3 net_13:2 0.4671
4 net_13:3 0.2972
5 inst_31:A1 0.3936
*RES
2 inst_15:ZN net_13:1 0.4880
3 net_13:1 net_13:2 0.4169
4 net_13:2 net_13:3 0.3167
5 net_13:3 inst_31:A1 0.3376
*END

*D_NET net_101 1.1644
*CONN
*I inst_49:ZN O
*I inst_26:A1 I
*CAP
1 inst_49:ZN 0.3579
2 net_101:1 0.3795
3 net_101:2 0.2362
4 inst_26:A1 0.1908
*RES
2 inst_49:ZN net_101:1 0.1996
3 net_101:1 net_101:2 0.3123
4 net_101:2 inst_26:A1 0.1251
*END

*D_NET net_32 9.9364
*CONN
*I inst_145:QN O
*I inst_39:A1 I
*I inst_69:A1 I
*I inst_71:A1 I
*I inst_33:A1 I
*I inst_52:A2 I
*I inst_7:A3 I
*I inst_67:A1 I
*I inst_150:A3 I
*I inst_12:A2 I
*I inst_58:A2 I
*CAP
1 inst_145:QN 0.3126
2 net_32:1 0.0541
3 inst_39:A1 0.3700
4 net_32:2 0.4904
5 inst_69:A1 0.0915
6 net_32:3 0.0690
7 net_32:4 0.2231
8 net_32:5 0.2934
9 inst_71:A1 0.0661
10 net_32:6 0.1282
11 net_32:7 0.2766
12 net_32:8 0.4045
13 net_32:9 0.4267
14 inst_33:A1 0.4596
15 net_32:10 0.2110
16 inst_52:A2 0.2588
17 net_32:11 0.2584
18 net_32:12 0.0346
19 net_32:13 0.4333
20 inst_7:A3 0.0645
21 net_32:14 0.1516
22 net_32:15 0.2746
23 inst_67:A1 0.4228
24 net_32:16 0.4926
25 net_32:17 0.0580
26 net_32:18 0.3810
27 net_32:19 0.2195
28 net_32:20 0.2042
29 inst_150:A3 0.2030
30 net_32:21 0.0857
31 net_32:22 0.2654
32 net_32:23 0.2245
33 net_32:24 0.4797
34 net_32:25 0.0551
35 inst_12:A2 0.1877
36 net_32:26 0.2766
37 net_32:27 0.3086
38 net_32:28 0.2353
39 inst_58:A2 0.4838
*RES
2 inst_145:QN net_32:1 0.3260
3 net_32:1 inst_39:A1 0.3466
4 net_32:1 net_32:2 0.4619
5 net_32:2 inst_69:A1 0.1065
6 net_32:1 net_32:3 0.0281
7 net_32:3 net_32:4 0.1011
8 net_32:4 net_32:5 0.2539
9 net_32:5 inst_71:A1 0.0765
10 net_32:2 net_32:6 0.3295
11 net_32:6 net_32:7 0.4724
12 net_32:7 net_32:8 0.4631
13 net_32:8 net_32:9 0.0407
14 net_32:9 inst_33:A1 0.4130
15 net_32:6 net_32:10 0.0339
16 net_32:10 inst_52:A2 0.0519
17 net_32:1 net_32:11 0.3416
18 net_32:11 net_32:12 0.4099
19 net_32:12 net_32:13 0.1540
20 net_32:13 inst_7:A3 0.0325
21 net_32:2 net_32:14 0.1417
22 net_32:14 net_32:15 0.3754
23 net_32:15 inst_67:A1 0.2016
24 net_32:6 net_32:16 0.2656
25 net_32:16 net_32:17 0.4413
26 net_32:17 net_32:18 0.1336
27 net_32:18 net_32:19 0.4042
28 net_32:19 net_32:20 0.0451
29 net_32:20 inst_150:A3 0.2391
30 net_32:1 net_32:21 0.0973
31 net_32:21 net_32:22 0.4235
32 net_32:22 net_32:23 0.1903
33 net_32:23 net_32:24 0.2143
34 net_32:24 net_32:25 0.0701
35 net_32:25 inst_12:A2 0.2421
36 net_32:24 net_32:26 0.0722
37 net_32:26 net_32:27 0.3539
38 net_32:27 net_32:28 0.3446
39 net_32:28 inst_58:A2 0.0192
*END

*D_NET net_94 1.5540
*CONN
*I inst_42:ZN O
*I inst_147:D I
*CAP
1 inst_42:ZN 0.4054
2 net_94:1 0.4419
3 net_94:2 0.1561
4 net_94:3 0.1347
5 net_94:4 0.0224
6 inst_147:D 0.3933
*RES
2 inst_42:ZN net_94:1 0.2244
3 net_94:1 net_94:2 0.4154
4 net_94:2 net_94:3 0.1374
5 net_94:3 net_94:4 0.1713
6 net_94:4 inst_147:D 0.2153
*END

*D_NET net_111 1.6905
*CONN
*I inst_79:ZN O
*I inst_83:A1 I
*CAP
1 inst_79:ZN 0.4918
2 net_111:1 0.0251
3 net_111:2 0.0071
4 net_111:3 0.2242
5 net_111:4 0.4834
6 inst_83:A1 0.4589
*RES
2 inst_79:ZN net_111:1 0.0098
3 net_111:1 net_111:2 0.3264
4 net_111:2 net_111:3 0.2846
5 net_111:3 net_111:4 0.4721
6 net_111:4 inst_83:A1 0.1185
*END

*D_NET net_90 1.2448
*CONN
*I inst_27:ZN O
*I inst_145:D I
*CAP
1 inst_27:ZN 0.3703
2 net_90:1 0.4409
3 inst_145:D 0.4335
*RES
2 inst_27:ZN net_90:1 0.3158
3 net_90:1 inst_145:D 0.2513
*END

*D_NET net_40 6.9621
*CONN
*I inst_153:ZN O
*I inst_6:A2 I
*I inst_40:A2 I
*I inst_67:A2 I
*I inst_34:A3 I
*I inst_18:A1 I
*I inst_29:A3 I
*I inst_45:A1 I
*CAP
1 inst_153:ZN 0.1640
2 net_40:1 0.3155
3 net_40:2 0.4909
4 inst_45:A1 0.2285
5 net_40:3 0.2112
6 net_40:4 0.3238
7 inst_40:A2 0.1536
8 net_40:5 0.0018
9 net_40:6 0.2665
10 net_40:7 0.4580
11 inst_67:A2 0.4392
12 net_40:8 0.2913
13 inst_34:A3 0.3837
14 net_40:9 0.4235
15 net_40:10 0.2000
16 inst_18:A1 0.4330
17 net_40:11 0.2267
18 net_40:12 0.0022
19 net_40:13 0.3986
20 net_40:14 0.0342
21 inst_29:A3 0.1492
22 net_40:15 0.3423
23 net_40:16 0.3091
24 net_40:17 0.3077
25 net_40:18 0.0259
26 inst_6:A2 0.3818
*RES
2 inst_153:ZN net_40:1 0.2293
3 net_40:1 net_40:2 0.4514
4 net_40:2 inst_45:A1 0.1489
5 net_40:2 net_40:3 0.2744
6 net_40:3 net_40:4 0.3973
7 net_40:4 inst_40:A2 0.0682
8 net_40:1 net_40:5 0.4660
9 net_40:5 net_40:6 0.3296
10 net_40:6 net_40:7 0.2711
11 net_40:7 inst_67:A2 0.1177
12 net_40:2 net_40:8 0.4308
13 net_40:8 inst_34:A3 0.4593
14 net_40:8 net_40:9 0.3792
15 net_40:9 net_40:10 0.3945
16 net_40:10 inst_18:A1 0.1168
17 net_40:1 net_40:11 0.1342
18 net_40:11 net_40:12 0.2299
19 net_40:12 net_40:13 0.4466
20 net_40:13 net_40:14 0.0789
21 net_40:14 inst_29:A3 0.1418
22 net_40:7 net_40:15 0.2326
23 net_40:15 net_40:16 0.3632
24 net_40:16 net_40:17 0.2277
25 net_40:17 net_40:18 0.1399
26 net_40:18 inst_6:A2 0.3067
*END

*D_NET net_11 0.3178
*CONN
*I inst_57:ZN O
*I inst_36:A3 I
*CAP
1 inst_57:ZN 0.0694
2 net_11:1 0.0340
3 net_11:2 0.1910
4 inst_36:A3 0.0233
*RES
2 inst_57:ZN net_11:1 0.1519
3 net_11:1 net_11:2 0.4158
4 net_11:2 inst_36:A3 0.0326
*END

*D_NET net_100 0.7717
*CONN
*I inst_92:ZN O
*I inst_93:A2 I
*CAP
1 inst_92:ZN 0.2469
2 net_100:1 0.1398
3 inst_93:A2 0.3850
*RES
2 inst_92:ZN net_100:1 0.2235
3 net_100:1 inst_93:A2 0.2530
*END

*D_NET net_69 1.2256
*CONN
*I inst_7:ZN O
*I inst_21:A1 I
*CAP
1 inst_7:ZN 0.1085
2 net_69:1 0.0178
3 net_69:2 0.1655
4 net_69:3 0.3230
5 net_69:4 0.3040
6 inst_21:A1 0.3068
*RES
2 inst_7:ZN net_69:1 0.1313
3 net_69:1 net_69:2 0.0490
4 net_69:2 net_69:3 0.1490
5 net_69:3 net_69:4 0.4082
6 net_69:4 inst_21:A1 0.0586
*END

*D_NET net_124 2.0375
*CONN
*I inst_155:ZN O
*I inst_50:A2 I
*CAP
1 inst_155:ZN 0.4766
2 net_124:1 0.1239
3 net_124:2 0.3524
4 net_124:3 0.4065
5 net_124:4 0.3838
6 net_124:5 0.2328
7 inst_50:A2 0.0616
*RES
2 inst_155:ZN net_124:1 0.3670
3 net_124:1 net_124:2 0.3852
4 net_124:2 net_124:3 0.1467
5 net_124:3 net_124:4 0.2409
6 net_124:4 net_124:5 0.4071
7 net_124:5 inst_50:A2 0.2078
*END

*D_NET net_123 0.6644
*CONN
*I inst_85:ZN O
*I inst_50:A1 I
*CAP
1 inst_85:ZN 0.2212
2 net_123:1 0.1904
3 inst_50:A1 0.2527
*RES
2 inst_85:ZN net_123:1 0.0491
3 net_123:1 inst_50:A1 0.0298
*END

*D_NET net_141 0.7771
*CONN
*I inst_59:ZN O
*I inst_73:A1 I
*CAP
1 inst_59:ZN 0.3430
2 net_141:1 0.2799
3 inst_73:A1 0.1542
*RES
2 inst_59:ZN net_141:1 0.1497
3 net_141:1 inst_73:A1 0.2415
*END

*D_NET net_29 0.8908
*CONN
*I inst_60:ZN O
*I inst_75:A2 I
*CAP
1 inst_60:ZN 0.2980
2 net_29:1 0.4120
3 net_29:2 0.1627
4 inst_75:A2 0.0181
*RES
2 inst_60:ZN net_29:1 0.3748
3 net_29:1 net_29:2 0.3179
4 net_29:2 inst_75:A2 0.1204
*END

*D_NET net_83 0.7131
*CONN
*I inst_87:ZN O
*I inst_152:A3 I
*CAP
1 inst_87:ZN 0.1679
2 net_83:1 0.3745
3 inst_152:A3 0.1708
*RES
2 inst_87:ZN net_83:1 0.0756
3 net_83:1 inst_152:A3 0.2634
*END

*D_NET v13_D_10 1.6890
*CONN
*I inst_151:ZN O
*P v13_D_10 O
*CAP
1 inst_151:ZN 0.4356
2 v13_D_10:1 0.1695
3 v13_D_10:2 0.1359
4 v13_D_10:3 0.3553
5 v13_D_10:4 0.1500
6 v13_D_10:5 0.4264
7 v13_D_10 0.0163
*RES
2 inst_151:ZN v13_D_10:1 0.2331
3 v13_D_10:1 v13_D_10:2 0.4626
4 v13_D_10:2 v13_D_10:3 0.4224
5 v13_D_10:3 v13_D_10:4 0.1724
6 v13_D_10:4 v13_D_10:5 0.0056
7 v13_D_10:5 v13_D_10 0.0020
*END

*D_NET net_77 10.5470
*CONN
*I inst_146:QN O
*I inst_5:A2 I
*I inst_92:A1 I
*I inst_6:A3 I
*I inst_151:A1 I
*I inst_4:A2 I
*I inst_60:A2 I
*I inst_24:A1 I
*I inst_53:A2 I
*I inst_58:A1 I
*CAP
1 inst_146:QN 0.2437
2 net_77:1 0.2690
3 net_77:2 0.0296
4 net_77:3 0.2418
5 inst_5:A2 0.1876
6 net_77:4 0.1135
7 net_77:5 0.4544
8 net_77:6 0.4819