*SPEF "IEEE 1481-1998"
*DESIGN "changes"
*DATE "Tue Dec 02 20:36:35 2014"
*VENDOR "TAU 2015 Contest"
*PROGRAM "Benchmark Parasitic Generator"
*VERSION "0.0"
*DESIGN_FLOW "NETLIST_TYPE_VERILOG"
*DIVIDER /
*DELIMITER :
*BUS_DELIMITER [ ]
*T_UNIT 1 PS
*C_UNIT 1 FF
*R_UNIT 1 KOHM
*L_UNIT 1 UH

*D_NET net_47 1.7439
*CONN
*I TAUGATE_189:Z O
*I inst_151:A3 I
*CAP
1 TAUGATE_189:Z 0.2611
2 net_47:1 0.4098
3 net_47:2 0.5009
4 net_47:3 0.2843
5 inst_151:A3 0.2878
*RES
2 TAUGATE_189:Z net_47:1 0.1659
3 net_47:1 net_47:2 0.2742
4 net_47:2 net_47:3 0.3494
5 net_47:3 inst_151:A3 0.1485
*END

*D_NET TAUNET_275 1.3760
*CONN
*I inst_149:QN O
*I TAUGATE_275:A I
*CAP
1 inst_149:QN 0.2110
2 TAUNET_275:1 0.3070
3 TAUNET_275:2 0.3583
4 TAUNET_275:3 0.1395
5 TAUNET_275:4 0.0646
6 TAUNET_275:5 0.0794
7 TAUGATE_275:A 0.2161
*RES
2 inst_149:QN TAUNET_275:1 0.1614
3 TAUNET_275:1 TAUNET_275:2 0.3312
4 TAUNET_275:2 TAUNET_275:3 0.3755
5 TAUNET_275:3 TAUNET_275:4 0.4644
6 TAUNET_275:4 TAUNET_275:5 0.4559
7 TAUNET_275:5 TAUGATE_275:A 0.4050
*END

*D_NET TAUNET_114 0.4849
*CONN
*I inst_126:ZN O
*I TAUGATE_114:A I
*CAP
1 inst_126:ZN 0.1670
2 TAUNET_114:1 0.2440
3 TAUNET_114:2 0.0332
4 TAUGATE_114:A 0.0406
*RES
2 inst_126:ZN TAUNET_114:1 0.2732
3 TAUNET_114:1 TAUNET_114:2 0.0073
4 TAUNET_114:2 TAUGATE_114:A 0.1308
*END

*D_NET net_137 3.2076
*CONN
*I TAUGATE_106:Z O
*I inst_137:A I
*I inst_23:A1 I
*CAP
1 TAUGATE_106:Z 0.2909
2 net_137:1 0.0740
3 net_137:2 0.4871
4 net_137:3 0.4951
5 net_137:4 0.4125
6 inst_137:A 0.0565
7 net_137:5 0.4708
8 net_137:6 0.3056
9 net_137:7 0.3464
10 net_137:8 0.0305
11 inst_23:A1 0.2383
*RES
2 TAUGATE_106:Z net_137:1 0.1285
3 net_137:1 net_137:2 0.0292
4 net_137:2 net_137:3 0.2926
5 net_137:3 net_137:4 0.4507
6 net_137:4 inst_137:A 0.3356
7 net_137:4 net_137:5 0.4020
8 net_137:5 net_137:6 0.2529
9 net_137:6 net_137:7 0.2665
10 net_137:7 net_137:8 0.4354
11 net_137:8 inst_23:A1 0.1977
*END

*D_NET net_132 2.4224
*CONN
*I TAUGATE_226:Z O
*I inst_20:A1 I
*I inst_7:A1 I
*CAP
1 TAUGATE_226:Z 0.3276
2 net_132:1 0.3292
3 net_132:2 0.0716
4 net_132:3 0.2236
5 net_132:4 0.1922
6 inst_20:A1 0.2805
7 net_132:5 0.3943
8 net_132:6 0.2211
9 net_132:7 0.1955
10 inst_7:A1 0.1868
*RES
2 TAUGATE_226:Z net_132:1 0.1322
3 net_132:1 net_132:2 0.1905
4 net_132:2 net_132:3 0.4017
5 net_132:3 net_132:4 0.4680
6 net_132:4 inst_20:A1 0.2976
7 net_132:2 net_132:5 0.4889
8 net_132:5 net_132:6 0.0703
9 net_132:6 net_132:7 0.3298
10 net_132:7 inst_7:A1 0.4131
*END

*D_NET net_54 2.6155
*CONN
*I TAUGATE_139:Z O
*I inst_72:A1 I
*I inst_35:A2 I
*CAP
1 TAUGATE_139:Z 0.2621
2 net_54:1 0.1808
3 net_54:2 0.0717
4 net_54:3 0.3990
5 net_54:4 0.4035
6 net_54:5 0.0219
7 inst_35:A2 0.0830
8 net_54:6 0.4382
9 net_54:7 0.3498
10 inst_72:A1 0.4055
*RES
2 TAUGATE_139:Z net_54:1 0.4539
3 net_54:1 net_54:2 0.1250
4 net_54:2 net_54:3 0.3196
5 net_54:3 net_54:4 0.4976
6 net_54:4 net_54:5 0.3591
7 net_54:5 inst_35:A2 0.2780
8 net_54:2 net_54:6 0.4519
9 net_54:6 net_54:7 0.4658
10 net_54:7 inst_72:A1 0.3690
*END

*D_NET net_105 1.3701
*CONN
*I TAUGATE_170:Z O
*I inst_37:A1 I
*CAP
1 TAUGATE_170:Z 0.0632
2 net_105:1 0.4700
3 net_105:2 0.3789
4 net_105:3 0.3545
5 inst_37:A1 0.1033
*RES
2 TAUGATE_170:Z net_105:1 0.4316
3 net_105:1 net_105:2 0.1782
4 net_105:2 net_105:3 0.4734
5 net_105:3 inst_37:A1 0.0376
*END

*D_NET TAUNET_232 0.9439
*CONN
*I inst_148:QN O
*I TAUGATE_232:A I
*CAP
1 inst_148:QN 0.3594
2 TAUNET_232:1 0.3248
3 TAUGATE_232:A 0.2597
*RES
2 inst_148:QN TAUNET_232:1 0.1267
3 TAUNET_232:1 TAUGATE_232:A 0.3840
*END

*D_NET net_129 4.5756
*CONN
*I TAUGATE_172:Z O
*I inst_150:A4 I
*I inst_70:A2 I
*I inst_30:A2 I
*CAP
1 TAUGATE_172:Z 0.3726
2 net_129:1 0.2454
3 net_129:2 0.4670
4 net_129:3 0.1921
5 inst_70:A2 0.1376
6 net_129:4 0.4004
7 net_129:5 0.4814
8 net_129:6 0.1341
9 net_129:7 0.3915
10 net_129:8 0.0282
11 inst_150:A4 0.3089
12 net_129:9 0.2288
13 net_129:10 0.0666
14 net_129:11 0.3854
15 net_129:12 0.3580
16 inst_30:A2 0.3774
*RES
2 TAUGATE_172:Z net_129:1 0.4443
3 net_129:1 net_129:2 0.1288
4 net_129:2 net_129:3 0.3022
5 net_129:3 inst_70:A2 0.1405
6 net_129:3 net_129:4 0.0253
7 net_129:4 net_129:5 0.3105
8 net_129:5 net_129:6 0.1881
9 net_129:6 net_129:7 0.2034
10 net_129:7 net_129:8 0.1592
11 net_129:8 inst_150:A4 0.3147
12 net_129:5 net_129:9 0.2731
13 net_129:9 net_129:10 0.1525
14 net_129:10 net_129:11 0.0518
15 net_129:11 net_129:12 0.2548
16 net_129:12 inst_30:A2 0.2154
*END

*D_NET TAUNET_77 0.6418
*CONN
*I inst_0:ZN O
*I TAUGATE_77:A I
*CAP
1 inst_0:ZN 0.1648
2 TAUNET_77:1 0.0112
3 TAUNET_77:2 0.3530
4 TAUGATE_77:A 0.1128
*RES
2 inst_0:ZN TAUNET_77:1 0.2239
3 TAUNET_77:1 TAUNET_77:2 0.0917
4 TAUNET_77:2 TAUGATE_77:A 0.4230
*END

*D_NET net_119 0.8105
*CONN
*I TAUGATE_160:Z O
*I inst_9:A1 I
*CAP
1 TAUGATE_160:Z 0.3290
2 net_119:1 0.0029
3 net_119:2 0.2883
4 inst_9:A1 0.1903
*RES
2 TAUGATE_160:Z net_119:1 0.4381
3 net_119:1 net_119:2 0.3484
4 net_119:2 inst_9:A1 0.0801
*END

*D_NET net_98 0.2534
*CONN
*I TAUGATE_91:Z O
*I inst_149:D I
*CAP
1 TAUGATE_91:Z 0.1891
2 net_98:1 0.0364
3 inst_149:D 0.0279
*RES
2 TAUGATE_91:Z net_98:1 0.4104
3 net_98:1 inst_149:D 0.0649
*END

*D_NET TAUNET_124 1.2069
*CONN
*I TAUGATE_5:Z O
*I TAUGATE_124:A I
*CAP
1 TAUGATE_5:Z 0.1600
2 TAUNET_124:1 0.4787
3 TAUNET_124:2 0.1076
4 TAUGATE_124:A 0.4606
*RES
2 TAUGATE_5:Z TAUNET_124:1 0.3388
3 TAUNET_124:1 TAUNET_124:2 0.4657
4 TAUNET_124:2 TAUGATE_124:A 0.3595
*END

*D_NET net_12 2.6799
*CONN
*I TAUGATE_110:Z O
*I inst_15:A1 I
*I inst_28:A2 I
*CAP
1 TAUGATE_110:Z 0.0832
2 net_12:1 0.3736
3 inst_15:A1 0.0395
4 net_12:2 0.3877
5 net_12:3 0.3882
6 net_12:4 0.4950
7 net_12:5 0.0413
8 net_12:6 0.4651
9 inst_28:A2 0.4065
*RES
2 TAUGATE_110:Z net_12:1 0.3644
3 net_12:1 inst_15:A1 0.0829
4 net_12:1 net_12:2 0.3164
5 net_12:2 net_12:3 0.3513
6 net_12:3 net_12:4 0.1165
7 net_12:4 net_12:5 0.0986
8 net_12:5 net_12:6 0.2243
9 net_12:6 inst_28:A2 0.1286
*END

*D_NET TAUNET_217 1.4306
*CONN
*I TAUGATE_59:Z O
*I TAUGATE_217:A I
*CAP
1 TAUGATE_59:Z 0.2482
2 TAUNET_217:1 0.1533
3 TAUNET_217:2 0.4091
4 TAUNET_217:3 0.2613
5 TAUGATE_217:A 0.3587
*RES
2 TAUGATE_59:Z TAUNET_217:1 0.1869
3 TAUNET_217:1 TAUNET_217:2 0.4974
4 TAUNET_217:2 TAUNET_217:3 0.3047
5 TAUNET_217:3 TAUGATE_217:A 0.1200
*END

*D_NET net_53 1.4464
*CONN
*I TAUGATE_82:Z O
*I inst_72:A2 I
*I inst_77:A2 I
*CAP
1 TAUGATE_82:Z 0.1210
2 net_53:1 0.1014
3 net_53:2 0.0283
4 inst_77:A2 0.2763
5 net_53:3 0.3404
6 net_53:4 0.1317
7 net_53:5 0.3617
8 inst_72:A2 0.0856
*RES
2 TAUGATE_82:Z net_53:1 0.2945
3 net_53:1 net_53:2 0.3177
4 net_53:2 inst_77:A2 0.2101
5 net_53:2 net_53:3 0.3629
6 net_53:3 net_53:4 0.2821
7 net_53:4 net_53:5 0.3900
8 net_53:5 inst_72:A2 0.0557
*END

*D_NET TAUNET_103 1.5353
*CONN
*I TAUGATE_51:Z O
*I TAUGATE_103:A I
*CAP
1 TAUGATE_51:Z 0.2716
2 TAUNET_103:1 0.1079
3 TAUNET_103:2 0.3323
4 TAUNET_103:3 0.2907
5 TAUNET_103:4 0.0362
6 TAUGATE_103:A 0.4966
*RES
2 TAUGATE_51:Z TAUNET_103:1 0.4101
3 TAUNET_103:1 TAUNET_103:2 0.2702
4 TAUNET_103:2 TAUNET_103:3 0.2135
5 TAUNET_103:3 TAUNET_103:4 0.0419
6 TAUNET_103:4 TAUGATE_103:A 0.2773
*END

*D_NET net_93 2.1160
*CONN
*I TAUGATE_187:Z O
*I inst_135:A I
*CAP
1 TAUGATE_187:Z 0.0485
2 net_93:1 0.4262
3 net_93:2 0.2009
4 net_93:3 0.3114
5 net_93:4 0.3090
6 net_93:5 0.3972
7 inst_135:A 0.4228
*RES
2 TAUGATE_187:Z net_93:1 0.2443
3 net_93:1 net_93:2 0.2458
4 net_93:2 net_93:3 0.3734
5 net_93:3 net_93:4 0.1567
6 net_93:4 net_93:5 0.1247
7 net_93:5 inst_135:A 0.2439
*END

*D_NET TAUNET_177 1.4807
*CONN
*I inst_108:ZN O
*I TAUGATE_177:A I
*CAP
1 inst_108:ZN 0.4474
2 TAUNET_177:1 0.0472
3 TAUNET_177:2 0.4436
4 TAUNET_177:3 0.1981
5 TAUNET_177:4 0.3275
6 TAUGATE_177:A 0.0169
*RES
2 inst_108:ZN TAUNET_177:1 0.4026
3 TAUNET_177:1 TAUNET_177:2 0.4684
4 TAUNET_177:2 TAUNET_177:3 0.2490
5 TAUNET_177:3 TAUNET_177:4 0.0579
6 TAUNET_177:4 TAUGATE_177:A 0.0423
*END

*D_NET TAUNET_270 1.8957
*CONN
*I inst_68:ZN O
*I TAUGATE_270:A I
*CAP
1 inst_68:ZN 0.4278
2 TAUNET_270:1 0.4796
3 TAUNET_270:2 0.3740
4 TAUNET_270:3 0.1554
5 TAUNET_270:4 0.0209
6 TAUGATE_270:A 0.4380
*RES
2 inst_68:ZN TAUNET_270:1 0.4130
3 TAUNET_270:1 TAUNET_270:2 0.4990
4 TAUNET_270:2 TAUNET_270:3 0.2134
5 TAUNET_270:3 TAUNET_270:4 0.1115
6 TAUNET_270:4 TAUGATE_270:A 0.4947
*END

*D_NET TAUNET_255 2.2597
*CONN
*I inst_70:ZN O
*I TAUGATE_255:A I
*CAP
1 inst_70:ZN 0.2854
2 TAUNET_255:1 0.2438
3 TAUNET_255:2 0.2969
4 TAUNET_255:3 0.3091
5 TAUNET_255:4 0.5006
6 TAUNET_255:5 0.2264
7 TAUGATE_255:A 0.3973
*RES
2 inst_70:ZN TAUNET_255:1 0.2044
3 TAUNET_255:1 TAUNET_255:2 0.1531
4 TAUNET_255:2 TAUNET_255:3 0.3886
5 TAUNET_255:3 TAUNET_255:4 0.2618
6 TAUNET_255:4 TAUNET_255:5 0.2468
7 TAUNET_255:5 TAUGATE_255:A 0.4002
*END

*D_NET TAUNET_31 0.7125
*CONN
*I TAUGATE_147:Z O
*I TAUGATE_31:A I
*CAP
1 TAUGATE_147:Z 0.1857
2 TAUNET_31:1 0.0882
3 TAUGATE_31:A 0.4386
*RES
2 TAUGATE_147:Z TAUNET_31:1 0.2715
3 TAUNET_31:1 TAUGATE_31:A 0.0199
*END

*D_NET TAUNET_243 0.5520
*CONN
*I inst_84:ZN O
*I TAUGATE_243:A I
*CAP
1 inst_84:ZN 0.1459
2 TAUNET_243:1 0.1026
3 TAUNET_243:2 0.1939
4 TAUGATE_243:A 0.1095
*RES
2 inst_84:ZN TAUNET_243:1 0.0212
3 TAUNET_243:1 TAUNET_243:2 0.1417
4 TAUNET_243:2 TAUGATE_243:A 0.2190
*END

*D_NET TAUNET_71 1.5644
*CONN
*I inst_23:ZN O
*I TAUGATE_71:A I
*CAP
1 inst_23:ZN 0.1138
2 TAUNET_71:1 0.3663
3 TAUNET_71:2 0.2540
4 TAUNET_71:3 0.0526
5 TAUNET_71:4 0.2388
6 TAUNET_71:5 0.1787
7 TAUGATE_71:A 0.3603
*RES
2 inst_23:ZN TAUNET_71:1 0.0603
3 TAUNET_71:1 TAUNET_71:2 0.0863
4 TAUNET_71:2 TAUNET_71:3 0.3102
5 TAUNET_71:3 TAUNET_71:4 0.1239
6 TAUNET_71:4 TAUNET_71:5 0.2473
7 TAUNET_71:5 TAUGATE_71:A 0.0055
*END

*D_NET TAUNET_91 1.2459
*CONN
*I TAUGATE_55:Z O
*I TAUGATE_91:A I
*CAP
1 TAUGATE_55:Z 0.2412
2 TAUNET_91:1 0.4441
3 TAUNET_91:2 0.4218
4 TAUNET_91:3 0.0848
5 TAUNET_91:4 0.0266
6 TAUGATE_91:A 0.0274
*RES
2 TAUGATE_55:Z TAUNET_91:1 0.4218
3 TAUNET_91:1 TAUNET_91:2 0.2061
4 TAUNET_91:2 TAUNET_91:3 0.2110
5 TAUNET_91:3 TAUNET_91:4 0.4583
6 TAUNET_91:4 TAUGATE_91:A 0.3985
*END

*D_NET TAUNET_57 1.9898
*CONN
*I TAUGATE_75:Z O
*I TAUGATE_57:A I
*CAP
1 TAUGATE_75:Z 0.0725
2 TAUNET_57:1 0.3124
3 TAUNET_57:2 0.3685
4 TAUNET_57:3 0.4317
5 TAUNET_57:4 0.1801
6 TAUNET_57:5 0.2826
7 TAUGATE_57:A 0.3420
*RES
2 TAUGATE_75:Z TAUNET_57:1 0.0965
3 TAUNET_57:1 TAUNET_57:2 0.2555
4 TAUNET_57:2 TAUNET_57:3 0.1304
5 TAUNET_57:3 TAUNET_57:4 0.3675
6 TAUNET_57:4 TAUNET_57:5 0.4634
7 TAUNET_57:5 TAUGATE_57:A 0.2869
*END

*D_NET TAUNET_208 0.5511
*CONN
*I TAUGATE_22:Z O
*I TAUGATE_208:A I
*CAP
1 TAUGATE_22:Z 0.1182
2 TAUNET_208:1 0.0608
3 TAUGATE_208:A 0.3721
*RES
2 TAUGATE_22:Z TAUNET_208:1 0.4648
3 TAUNET_208:1 TAUGATE_208:A 0.2376
*END

*D_NET TAUNET_9 0.8353
*CONN
*I TAUGATE_246:Z O
*I TAUGATE_9:A I
*CAP
1 TAUGATE_246:Z 0.3081
2 TAUNET_9:1 0.0264
3 TAUNET_9:2 0.2502
4 TAUGATE_9:A 0.2506
*RES
2 TAUGATE_246:Z TAUNET_9:1 0.4486
3 TAUNET_9:1 TAUNET_9:2 0.0641
4 TAUNET_9:2 TAUGATE_9:A 0.0138
*END

*D_NET net_127 0.7959
*CONN
*I TAUGATE_71:Z O
*I inst_63:A1 I
*CAP
1 TAUGATE_71:Z 0.0204
2 net_127:1 0.1001
3 net_127:2 0.2747
4 net_127:3 0.1704
5 inst_63:A1 0.2303
*RES
2 TAUGATE_71:Z net_127:1 0.0121
3 net_127:1 net_127:2 0.0620
4 net_127:2 net_127:3 0.0267
5 net_127:3 inst_63:A1 0.1278
*END

*D_NET TAUNET_240 1.5058
*CONN
*I TAUGATE_18:Z O
*I TAUGATE_240:A I
*CAP
1 TAUGATE_18:Z 0.3621
2 TAUNET_240:1 0.3490
3 TAUNET_240:2 0.4751
4 TAUGATE_240:A 0.3195
*RES
2 TAUGATE_18:Z TAUNET_240:1 0.4748
3 TAUNET_240:1 TAUNET_240:2 0.2505
4 TAUNET_240:2 TAUGATE_240:A 0.2036
*END

*D_NET TAUNET_128 1.2849
*CONN
*I inst_19:ZN O
*I TAUGATE_128:A I
*CAP
1 inst_19:ZN 0.0185
2 TAUNET_128:1 0.2437
3 TAUNET_128:2 0.3641
4 TAUNET_128:3 0.1411
5 TAUNET_128:4 0.2452
6 TAUGATE_128:A 0.2723
*RES
2 inst_19:ZN TAUNET_128:1 0.2079
3 TAUNET_128:1 TAUNET_128:2 0.2449
4 TAUNET_128:2 TAUNET_128:3 0.0406
5 TAUNET_128:3 TAUNET_128:4 0.0917
6 TAUNET_128:4 TAUGATE_128:A 0.0078
*END

*D_NET net_76 1.7463
*CONN
*I TAUGATE_212:Z O
*I inst_5:A1 I
*I inst_4:A1 I
*CAP
1 TAUGATE_212:Z 0.0264
2 net_76:1 0.1906
3 inst_5:A1 0.1553
4 net_76:2 0.5008
5 net_76:3 0.2979
6 net_76:4 0.3428
7 inst_4:A1 0.2325
*RES
2 TAUGATE_212:Z net_76:1 0.0937
3 net_76:1 inst_5:A1 0.2944
4 net_76:1 net_76:2 0.2733
5 net_76:2 net_76:3 0.1266
6 net_76:3 net_76:4 0.3814
7 net_76:4 inst_4:A1 0.1363
*END

*D_NET TAUNET_161 1.9996
*CONN
*I inst_139:ZN O
*I TAUGATE_161:A I
*CAP
1 inst_139:ZN 0.3144
2 TAUNET_161:1 0.3676
3 TAUNET_161:2 0.1603
4 TAUNET_161:3 0.4423
5 TAUNET_161:4 0.1159
6 TAUNET_161:5 0.4527
7 TAUGATE_161:A 0.1465
*RES
2 inst_139:ZN TAUNET_161:1 0.1463
3 TAUNET_161:1 TAUNET_161:2 0.4621
4 TAUNET_161:2 TAUNET_161:3 0.4065
5 TAUNET_161:3 TAUNET_161:4 0.0227
6 TAUNET_161:4 TAUNET_161:5 0.2236
7 TAUNET_161:5 TAUGATE_161:A 0.4114
*END

*D_NET TAUNET_249 0.9678
*CONN
*I TAUGATE_48:Z O
*I TAUGATE_249:A I
*CAP
1 TAUGATE_48:Z 0.1546
2 TAUNET_249:1 0.4367
3 TAUNET_249:2 0.3452
4 TAUGATE_249:A 0.0313
*RES
2 TAUGATE_48:Z TAUNET_249:1 0.1217
3 TAUNET_249:1 TAUNET_249:2 0.0111
4 TAUNET_249:2 TAUGATE_249:A 0.1222
*END

*D_NET net_101 2.0377
*CONN
*I TAUGATE_273:Z O
*I inst_26:A1 I
*CAP
1 TAUGATE_273:Z 0.1692
2 net_101:1 0.4978
3 net_101:2 0.2563
4 net_101:3 0.2595
5 net_101:4 0.2603
6 net_101:5 0.2874
7 inst_26:A1 0.3072
*RES
2 TAUGATE_273:Z net_101:1 0.2768
3 net_101:1 net_101:2 0.1679
4 net_101:2 net_101:3 0.2053
5 net_101:3 net_101:4 0.2140
6 net_101:4 net_101:5 0.3306
7 net_101:5 inst_26:A1 0.1569
*END

*D_NET net_111 2.5545
*CONN
*I TAUGATE_180:Z O
*I inst_83:A1 I
*CAP
1 TAUGATE_180:Z 0.2138
2 net_111:1 0.3806
3 net_111:2 0.4946
4 net_111:3 0.4608
5 net_111:4 0.4692
6 net_111:5 0.4766
7 inst_83:A1 0.0589
*RES
2 TAUGATE_180:Z net_111:1 0.0962
3 net_111:1 net_111:2 0.2415
4 net_111:2 net_111:3 0.1750
5 net_111:3 net_111:4 0.4103
6 net_111:4 net_111:5 0.0845
7 net_111:5 inst_83:A1 0.1888
*END

*D_NET net_90 1.2719
*CONN
*I TAUGATE_259:Z O
*I inst_145:D I
*CAP
1 TAUGATE_259:Z 0.1762
2 net_90:1 0.0806
3 net_90:2 0.0407
4 net_90:3 0.2069
5 net_90:4 0.0491
6 net_90:5 0.4137
7 inst_145:D 0.3046
*RES
2 TAUGATE_259:Z net_90:1 0.2987
3 net_90:1 net_90:2 0.2640
4 net_90:2 net_90:3 0.1831
5 net_90:3 net_90:4 0.4110
6 net_90:4 net_90:5 0.0191
7 net_90:5 inst_145:D 0.3538
*END

*D_NET TAUNET_192 0.8608
*CONN
*I inst_113:ZN O
*I TAUGATE_192:A I
*CAP
1 inst_113:ZN 0.3629
2 TAUNET_192:1 0.2007
3 TAUGATE_192:A 0.2971
*RES
2 inst_113:ZN TAUNET_192:1 0.4025
3 TAUNET_192:1 TAUGATE_192:A 0.5010
*END

*D_NET TAUNET_151 0.8674
*CONN
*I inst_111:ZN O
*I TAUGATE_151:A I
*CAP
1 inst_111:ZN 0.4649
2 TAUNET_151:1 0.1062
3 TAUGATE_151:A 0.2963
*RES
2 inst_111:ZN TAUNET_151:1 0.4911
3 TAUNET_151:1 TAUGATE_151:A 0.2002
*END

*D_NET TAUNET_141 1.0917
*CONN
*I inst_25:ZN O
*I TAUGATE_141:A I
*CAP
1 inst_25:ZN 0.3761
2 TAUNET_141:1 0.4298
3 TAUGATE_141:A 0.2857
*RES
2 inst_25:ZN TAUNET_141:1 0.2634
3 TAUNET_141:1 TAUGATE_141:A 0.0470
*END

*D_NET net_100 1.5176
*CONN
*I TAUGATE_165:Z O
*I inst_93:A2 I
*CAP
1 TAUGATE_165:Z 0.1738
2 net_100:1 0.4556
3 net_100:2 0.1284
4 net_100:3 0.0036
5 net_100:4 0.1731
6 net_100:5 0.2737
7 inst_93:A2 0.3095
*RES
2 TAUGATE_165:Z net_100:1 0.4895
3 net_100:1 net_100:2 0.4033
4 net_100:2 net_100:3 0.2734
5 net_100:3 net_100:4 0.3461
6 net_100:4 net_100:5 0.3729
7 net_100:5 inst_93:A2 0.0418
*END

*D_NET net_85 4.9418
*CONN
*I TAUGATE_218:Z O
*I inst_133:A I
*I inst_48:A2 I
*I inst_9:A3 I
*I inst_10:A1 I
*CAP
1 TAUGATE_218:Z 0.3815
2 net_85:1 0.4915
3 net_85:2 0.0683
4 inst_9:A3 0.2135
5 net_85:3 0.3473
6 net_85:4 0.1114
7 net_85:5 0.0198
8 net_85:6 0.2366
9 net_85:7 0.1100
10 inst_48:A2 0.2818
11 net_85:8 0.1394
12 net_85:9 0.0096
13 net_85:10 0.4963
14 net_85:11 0.2377
15 inst_133:A 0.2571
16 net_85:12 0.1345
17 net_85:13 0.4134
18 net_85:14 0.0741
19 net_85:15 0.4290
20 inst_10:A1 0.4891
*RES
2 TAUGATE_218:Z net_85:1 0.4484
3 net_85:1 net_85:2 0.1379
4 net_85:2 inst_9:A3 0.1139
5 net_85:1 net_85:3 0.3290
6 net_85:3 net_85:4 0.1592
7 net_85:4 net_85:5 0.4236
8 net_85:5 net_85:6 0.3328
9 net_85:6 net_85:7 0.1906
10 net_85:7 inst_48:A2 0.5003
11 net_85:7 net_85:8 0.3610
12 net_85:8 net_85:9 0.0042
13 net_85:9 net_85:10 0.2690
14 net_85:10 net_85:11 0.3841
15 net_85:11 inst_133:A 0.3400
16 net_85:6 net_85:12 0.0621
17 net_85:12 net_85:13 0.2122
18 net_85:13 net_85:14 0.2034
19 net_85:14 net_85:15 0.1253
20 net_85:15 inst_10:A1 0.2112
*END

*D_NET net_124 0.7145
*CONN
*I TAUGATE_181:Z O
*I inst_50:A2 I
*CAP
1 TAUGATE_181:Z 0.1106
2 net_124:1 0.2644
3 inst_50:A2 0.3395
*RES
2 TAUGATE_181:Z net_124:1 0.4160
3 net_124:1 inst_50:A2 0.1311
*END

*D_NET TAUNET_49 0.5652
*CONN
*I TAUGATE_158:Z O
*I TAUGATE_49:A I
*CAP
1 TAUGATE_158:Z 0.0535
2 TAUNET_49:1 0.2939
3 TAUGATE_49:A 0.2177
*RES
2 TAUGATE_158:Z TAUNET_49:1 0.0520
3 TAUNET_49:1 TAUGATE_49:A 0.1787
*END

*D_NET TAUNET_201 1.2588
*CONN
*I inst_48:ZN O
*I TAUGATE_201:A I
*CAP
1 inst_48:ZN 0.2308
2 TAUNET_201:1 0.4154
3 TAUNET_201:2 0.4205
4 TAUGATE_201:A 0.1921
*RES
2 inst_48:ZN TAUNET_201:1 0.3303
3 TAUNET_201:1 TAUNET_201:2 0.0500
4 TAUNET_201:2 TAUGATE_201:A 0.3450
*END

*D_NET TAUNET_87 1.3816
*CONN
*I inst_37:ZN O
*I TAUGATE_87:A I
*CAP
1 inst_37:ZN 0.2397
2 TAUNET_87:1 0.0450
3 TAUNET_87:2 0.3586
4 TAUNET_87:3 0.1804
5 TAUNET_87:4 0.2132
6 TAUGATE_87:A 0.3448
*RES
2 inst_37:ZN TAUNET_87:1 0.2539
3 TAUNET_87:1 TAUNET_87:2 0.0169
4 TAUNET_87:2 TAUNET_87:3 0.2910
5 TAUNET_87:3 TAUNET_87:4 0.3418
6 TAUNET_87:4 TAUGATE_87:A 0.0277
*END

*D_NET TAUNET_231 0.7138
*CONN
*I TAUGATE_44:Z O
*I TAUGATE_231:A I
*CAP
1 TAUGATE_44:Z 0.0700
2 TAUNET_231:1 0.4916
3 TAUNET_231:2 0.0258
4 TAUNET_231:3 0.0722
5 TAUNET_231:4 0.0268
6 TAUGATE_231:A 0.0274
*RES
2 TAUGATE_44:Z TAUNET_231:1 0.0955
3 TAUNET_231:1 TAUNET_231:2 0.0758
4 TAUNET_231:2 TAUNET_231:3 0.0730
5 TAUNET_231:3 TAUNET_231:4 0.2996
6 TAUNET_231:4 TAUGATE_231:A 0.1500
*END

*D_NET net_115 2.2565
*CONN
*I TAUGATE_122:Z O
*I inst_25:A2 I
*I inst_77:A1 I
*CAP
1 TAUGATE_122:Z 0.0605
2 net_115:1 0.4347
3 net_115:2 0.2976
4 inst_77:A1 0.3531
5 net_115:3 0.2983
6 net_115:4 0.4269
7 net_115:5 0.0493
8 net_115:6 0.0341
9 inst_25:A2 0.3020
*RES
2 TAUGATE_122:Z net_115:1 0.0316
3 net_115:1 net_115:2 0.1823
4 net_115:2 inst_77:A1 0.0755
5 net_115:2 net_115:3 0.3389
6 net_115:3 net_115:4 0.4000
7 net_115:4 net_115:5 0.0188
8 net_115:5 net_115:6 0.4709
9 net_115:6 inst_25:A2 0.4204
*END

*D_NET TAUNET_50 0.6936
*CONN
*I TAUGATE_266:Z O
*I TAUGATE_50:A I
*CAP
1 TAUGATE_266:Z 0.2688
2 TAUNET_50:1 0.3051
3 TAUGATE_50:A 0.1197
*RES
2 TAUGATE_266:Z TAUNET_50:1 0.2956
3 TAUNET_50:1 TAUGATE_50:A 0.2210
*END

*D_NET v2 5.2019
*CONN
*I TAUGATE_120:Z O
*I inst_140:A I
*I inst_55:A2 I
*I inst_34:A2 I
*I inst_56:A1 I
*I inst_154:A2 I
*CAP
1 TAUGATE_120:Z 0.2798
2 v2:1 0.0137
3 v2:2 0.2108
4 v2:3 0.3101
5 v2:4 0.0161
6 inst_140:A 0.2047
7 v2:5 0.3526
8 v2:6 0.3715
9 inst_55:A2 0.3144
10 v2:7 0.2418
11 v2:8 0.4080
12 v2:9 0.3118
13 v2:10 0.4981
14 v2:11 0.3134
15 inst_34:A2 0.4059
16 v2:12 0.0044
17 inst_56:A1 0.1986
18 v2:13 0.2737
19 inst_154:A2 0.4724
*RES
2 TAUGATE_120:Z v2:1 0.3729
3 v2:1 v2:2 0.0610
4 v2:2 v2:3 0.4010
5 v2:3 v2:4 0.2910
6 v2:4 inst_140:A 0.3768
7 v2:3 v2:5 0.3618
8 v2:5 v2:6 0.0820
9 v2:6 inst_55:A2 0.2174
10 v2:5 v2:7 0.1396
11 v2:7 v2:8 0.0910
12 v2:8 v2:9 0.1278
13 v2:9 v2:10 0.3093
14 v2:10 v2:11 0.3342
15 v2:11 inst_34:A2 0.2150
16 v2:5 v2:12 0.0476
17 v2:12 inst_56:A1 0.0521
18 v2:1 v2:13 0.2677
19 v2:13 inst_154:A2 0.2426
*END

*D_NET TAUNET_72 0.9590
*CONN
*I inst_136:ZN O
*I TAUGATE_72:A I
*CAP
1 inst_136:ZN 0.2784
2 TAUNET_72:1 0.3776
3 TAUNET_72:2 0.2937
4 TAUGATE_72:A 0.0093
*RES
2 inst_136:ZN TAUNET_72:1 0.2822
3 TAUNET_72:1 TAUNET_72:2 0.4311
4 TAUNET_72:2 TAUGATE_72:A 0.0309
*END

*D_NET net_4 1.6652
*CONN
*I TAUGATE_61:Z O
*I inst_69:A2 I
*CAP
1 TAUGATE_61:Z 0.3809
2 net_4:1 0.3242
3 net_4:2 0.2336
4 net_4:3 0.3863
5 net_4:4 0.2365
6 inst_69:A2 0.1037
*RES
2 TAUGATE_61:Z net_4:1 0.3572
3 net_4:1 net_4:2 0.2211
4 net_4:2 net_4:3 0.2185
5 net_4:3 net_4:4 0.2266
6 net_4:4 inst_69:A2 0.2538
*END

*D_NET net_17 1.8250
*CONN
*I TAUGATE_70:Z O
*I inst_6:A1 I
*CAP
1 TAUGATE_70:Z 0.4791
2 net_17:1 0.2444
3 net_17:2 0.4262
4 net_17:3 0.3737
5 inst_6:A1 0.3015
*RES
2 TAUGATE_70:Z net_17:1 0.1830
3 net_17:1 net_17:2 0.3035
4 net_17:2 net_17:3 0.4053
5 net_17:3 inst_6:A1 0.0863
*END

*D_NET TAUNET_134 0.8541
*CONN
*I inst_36:ZN O
*I TAUGATE_134:A I
*CAP
1 inst_36:ZN 0.1365
2 TAUNET_134:1 0.4263
3 TAUGATE_134:A 0.2912
*RES
2 inst_36:ZN TAUNET_134:1 0.1111
3 TAUNET_134:1 TAUGATE_134:A 0.3711
*END

*D_NET TAUNET_267 0.6095
*CONN
*I TAUGATE_38:Z O
*I TAUGATE_267:A I
*CAP
1 TAUGATE_38:Z 0.1351
2 TAUNET_267:1 0.0368
3 TAUGATE_267:A 0.4376
*RES
2 TAUGATE_38:Z TAUNET_267:1 0.1423
3 TAUNET_267:1 TAUGATE_267:A 0.1283
*END

*D_NET TAUNET_34 2.2451
*CONN
*I TAUGATE_107:Z O
*I TAUGATE_34:A I
*CAP
1 TAUGATE_107:Z 0.3234
2 TAUNET_34:1 0.4832
3 TAUNET_34:2 0.2776
4 TAUNET_34:3 0.3781
5 TAUNET_34:4 0.3766
6 TAUNET_34:5 0.0185
7 TAUGATE_34:A 0.3877
*RES
2 TAUGATE_107:Z TAUNET_34:1 0.1588
3 TAUNET_34:1 TAUNET_34:2 0.3738
4 TAUNET_34:2 TAUNET_34:3 0.4556
5 TAUNET_34:3 TAUNET_34:4 0.1835
6 TAUNET_34:4 TAUNET_34:5 0.0020
7 TAUNET_34:5 TAUGATE_34:A 0.2614
*END

*D_NET TAUNET_19 1.4224
*CONN
*I TAUGATE_85:Z O
*I TAUGATE_19:A I
*CAP
1 TAUGATE_85:Z 0.2164
2 TAUNET_19:1 0.1158
3 TAUNET_19:2 0.1153
4 TAUNET_19:3 0.3810
5 TAUNET_19:4 0.1100
6 TAUNET_19:5 0.1662
7 TAUGATE_19:A 0.3178
*RES
2 TAUGATE_85:Z TAUNET_19:1 0.2541
3 TAUNET_19:1 TAUNET_19:2 0.2497
4 TAUNET_19:2 TAUNET_19:3 0.4625
5 TAUNET_19:3 TAUNET_19:4 0.2343
6 TAUNET_19:4 TAUNET_19:5 0.0981
7 TAUNET_19:5 TAUGATE_19:A 0.3461
*END

*D_NET TAUNET_236 0.6556
*CONN
*P blif_reset_net I
*I TAUGATE_236:A I
*CAP
1 blif_reset_net 0.4109
2 TAUNET_236:1 0.2326
3 TAUGATE_236:A 0.0121
*RES
2 blif_reset_net TAUNET_236:1 0.2674
3 TAUNET_236:1 TAUGATE_236:A 0.2072
*END

*D_NET net_87 1.0250
*CONN
*I TAUGATE_142:Z O
*I inst_134:A I
*CAP
1 TAUGATE_142:Z 0.2455
2 net_87:1 0.0138
3 net_87:2 0.4527
4 inst_134:A 0.3131
*RES
2 TAUGATE_142:Z net_87:1 0.4392
3 net_87:1 net_87:2 0.4048
4 net_87:2 inst_134:A 0.0368
*END

*D_NET net_0 1.7633
*CONN
*I TAUGATE_272:Z O
*I inst_61:A2 I
*CAP
1 TAUGATE_272:Z 0.2266
2 net_0:1 0.3736
3 net_0:2 0.3306
4 net_0:3 0.3042
5 net_0:4 0.1317
6 net_0:5 0.1481
7 inst_61:A2 0.2485
*RES
2 TAUGATE_272:Z net_0:1 0.2201
3 net_0:1 net_0:2 0.2966
4 net_0:2 net_0:3 0.3013
5 net_0:3 net_0:4 0.0758
6 net_0:4 net_0:5 0.0262
7 net_0:5 inst_61:A2 0.3812
*END

*D_NET TAUNET_264 0.5106
*CONN
*I TAUGATE_7:Z O
*I TAUGATE_264:A I
*CAP
1 TAUGATE_7:Z 0.1550
2 TAUNET_264:1 0.1418
3 TAUGATE_264:A 0.2138
*RES
2 TAUGATE_7:Z TAUNET_264:1 0.3805
3 TAUNET_264:1 TAUGATE_264:A 0.2523
*END

*D_NET TAUNET_44 1.6754
*CONN
*I TAUGATE_193:Z O
*I TAUGATE_44:A I
*CAP
1 TAUGATE_193:Z 0.4938
2 TAUNET_44:1 0.2131
3 TAUNET_44:2 0.3201
4 TAUNET_44:3 0.0320
5 TAUNET_44:4 0.2786
6 TAUGATE_44:A 0.3378
*RES
2 TAUGATE_193:Z TAUNET_44:1 0.4364
3 TAUNET_44:1 TAUNET_44:2 0.2454
4 TAUNET_44:2 TAUNET_44:3 0.4527
5 TAUNET_44:3 TAUNET_44:4 0.2663
6 TAUNET_44:4 TAUGATE_44:A 0.3641
*END

*D_NET TAUNET_207 1.5675
*CONN
*I inst_81:ZN O
*I TAUGATE_207:A I
*CAP
1 inst_81:ZN 0.2701
2 TAUNET_207:1 0.4105
3 TAUNET_207:2 0.3004
4 TAUNET_207:3 0.3665
5 TAUNET_207:4 0.1341
6 TAUGATE_207:A 0.0859
*RES
2 inst_81:ZN TAUNET_207:1 0.1706
3 TAUNET_207:1 TAUNET_207:2 0.3812
4 TAUNET_207:2 TAUNET_207:3 0.0751
5 TAUNET_207:3 TAUNET_207:4 0.1227
6 TAUNET_207:4 TAUGATE_207:A 0.0294
*END

*D_NET TAUNET_185 2.1109
*CONN
*I inst_114:ZN O
*I TAUGATE_185:A I
*CAP
1 inst_114:ZN 0.3552
2 TAUNET_185:1 0.1840
3 TAUNET_185:2 0.4010
4 TAUNET_185:3 0.3573
5 TAUNET_185:4 0.4559
6 TAUGATE_185:A 0.3575
*RES
2 inst_114:ZN TAUNET_185:1 0.1715
3 TAUNET_185:1 TAUNET_185:2 0.3050
4 TAUNET_185:2 TAUNET_185:3 0.3594
5 TAUNET_185:3 TAUNET_185:4 0.4902
6 TAUNET_185:4 TAUGATE_185:A 0.4716
*END

*D_NET net_35 0.8507
*CONN
*I TAUGATE_241:Z O
*I inst_74:A1 I
*CAP
1 TAUGATE_241:Z 0.1762
2 net_35:1 0.1660
3 net_35:2 0.2177
4 inst_74:A1 0.2908
*RES
2 TAUGATE_241:Z net_35:1 0.3318
3 net_35:1 net_35:2 0.3308
4 net_35:2 inst_74:A1 0.4080
*END

*D_NET net_16 2.0785
*CONN
*I TAUGATE_157:Z O
*I inst_67:A1 I
*I inst_122:A I
*CAP
1 TAUGATE_157:Z 0.1932
2 net_16:1 0.0053
3 inst_122:A 0.1459
4 net_16:2 0.4574
5 net_16:3 0.4683
6 net_16:4 0.1543
7 net_16:5 0.4873
8 inst_67:A1 0.1669
*RES
2 TAUGATE_157:Z net_16:1 0.0437
3 net_16:1 inst_122:A 0.4598
4 net_16:1 net_16:2 0.4800
5 net_16:2 net_16:3 0.4518
6 net_16:3 net_16:4 0.0570
7 net_16:4 net_16:5 0.4909
8 net_16:5 inst_67:A1 0.0572
*END

*D_NET v6 1.5455
*CONN
*I TAUGATE_86:Z O
*I inst_4:A4 I
*CAP
1 TAUGATE_86:Z 0.1013
2 v6:1 0.4210
3 v6:2 0.2594
4 v6:3 0.3565
5 inst_4:A4 0.4074
*RES
2 TAUGATE_86:Z v6:1 0.4309
3 v6:1 v6:2 0.4474
4 v6:2 v6:3 0.2931
5 v6:3 inst_4:A4 0.2848
*END

*D_NET TAUNET_56 1.9018
*CONN
*I TAUGATE_219:Z O
*I TAUGATE_56:A I
*CAP
1 TAUGATE_219:Z 0.3320
2 TAUNET_56:1 0.3663
3 TAUNET_56:2 0.1512
4 TAUNET_56:3 0.1368
5 TAUNET_56:4 0.4493
6 TAUGATE_56:A 0.4663
*RES
2 TAUGATE_219:Z TAUNET_56:1 0.2866
3 TAUNET_56:1 TAUNET_56:2 0.1873
4 TAUNET_56:2 TAUNET_56:3 0.1599
5 TAUNET_56:3 TAUNET_56:4 0.3589
6 TAUNET_56:4 TAUGATE_56:A 0.4697
*END

*D_NET TAUNET_102 0.9872
*CONN
*I inst_102:ZN O
*I TAUGATE_102:A I
*CAP
1 inst_102:ZN 0.0401
2 TAUNET_102:1 0.1883
3 TAUNET_102:2 0.3075
4 TAUNET_102:3 0.0604
5 TAUGATE_102:A 0.3908
*RES
2 inst_102:ZN TAUNET_102:1 0.2921
3 TAUNET_102:1 TAUNET_102:2 0.4162
4 TAUNET_102:2 TAUNET_102:3 0.1285
5 TAUNET_102:3 TAUGATE_102:A 0.0491
*END

*D_NET TAUNET_110 0.9901
*CONN
*I inst_107:ZN O
*I TAUGATE_110:A I
*CAP
1 inst_107:ZN 0.2111
2 TAUNET_110:1 0.1515
3 TAUNET_110:2 0.0492
4 TAUNET_110:3 0.2707
5 TAUNET_110:4 0.0711
6 TAUGATE_110:A 0.2365
*RES
2 inst_107:ZN TAUNET_110:1 0.0021
3 TAUNET_110:1 TAUNET_110:2 0.2080
4 TAUNET_110:2 TAUNET_110:3 0.3529
5 TAUNET_110:3 TAUNET_110:4 0.4886
6 TAUNET_110:4 TAUGATE_110:A 0.3648
*END

*D_NET TAUNET_41 1.5829
*CONN
*I TAUGATE_179:Z O
*I TAUGATE_41:A I
*CAP
1 TAUGATE_179:Z 0.3187
2 TAUNET_41:1 0.0224
3 TAUNET_41:2 0.4026
4 TAUNET_41:3 0.2784
5 TAUNET_41:4 0.1803
6 TAUNET_41:5 0.0882
7 TAUGATE_41:A 0.2924
*RES
2 TAUGATE_179:Z TAUNET_41:1 0.4780
3 TAUNET_41:1 TAUNET_41:2 0.3510
4 TAUNET_41:2 TAUNET_41:3 0.1182
5 TAUNET_41:3 TAUNET_41:4 0.2614
6 TAUNET_41:4 TAUNET_41:5 0.1530
7 TAUNET_41:5 TAUGATE_41:A 0.2582
*END

*D_NET TAUNET_164 1.1301
*CONN
*I inst_75:ZN O
*I TAUGATE_164:A I
*CAP
1 inst_75:ZN 0.0762
2 TAUNET_164:1 0.3922
3 TAUNET_164:2 0.3950
4 TAUGATE_164:A 0.2666
*RES
2 inst_75:ZN TAUNET_164:1 0.4255
3 TAUNET_164:1 TAUNET_164:2 0.4671
4 TAUNET_164:2 TAUGATE_164:A 0.2972
*END

*D_NET net_42 2.1171
*CONN
*I TAUGATE_209:Z O
*I inst_78:A2 I
*CAP
1 TAUGATE_209:Z 0.4880
2 net_42:1 0.3167
3 net_42:2 0.3376
4 net_42:3 0.1073
5 net_42:4 0.3579
6 net_42:5 0.1300
7 inst_78:A2 0.3795
*RES
2 TAUGATE_209:Z net_42:1 0.2362
3 net_42:1 net_42:2 0.1908
4 net_42:2 net_42:3 0.1996
5 net_42:3 net_42:4 0.3123
6 net_42:4 net_42:5 0.1251
7 net_42:5 inst_78:A2 0.0048
*END

*D_NET net_120 0.7154
*CONN
*I TAUGATE_208:Z O
*I inst_90:A1 I
*CAP
1 TAUGATE_208:Z 0.0195
2 net_120:1 0.3700
3 inst_90:A1 0.3260
*RES
2 TAUGATE_208:Z net_120:1 0.3466
3 net_120:1 inst_90:A1 0.4948
*END

*D_NET TAUNET_142 0.7773
*CONN
*I inst_42:ZN O
*I TAUGATE_142:A I
*CAP
1 inst_42:ZN 0.1954
2 TAUNET_142:1 0.4904
3 TAUGATE_142:A 0.0915
*RES
2 inst_42:ZN TAUNET_142:1 0.4619
3 TAUNET_142:1 TAUGATE_142:A 0.1065
*END

*D_NET TAUNET_64 0.7741
*CONN
*I TAUGATE_58:Z O
*I TAUGATE_64:A I
*CAP
1 TAUGATE_58:Z 0.2576
2 TAUNET_64:1 0.2231
3 TAUGATE_64:A 0.2934
*RES
2 TAUGATE_58:Z TAUNET_64:1 0.0661
3 TAUNET_64:1 TAUGATE_64:A 0.0281
*END

*D_NET TAUNET_211 0.7745
*CONN
*I inst_150:ZN O
*I TAUGATE_211:A I
*CAP
1 inst_150:ZN 0.2539
2 TAUNET_211:1 0.1980
3 TAUGATE_211:A 0.3226
*RES
2 inst_150:ZN TAUNET_211:1 0.1282
3 TAUNET_211:1 TAUGATE_211:A 0.2766
*END

*D_NET net_109 2.4916
*CONN
*I TAUGATE_243:Z O
*I inst_89:A2 I
*CAP
1 TAUGATE_243:Z 0.4267
2 net_109:1 0.3295
3 net_109:2 0.4724
4 net_109:3 0.4631
5 net_109:4 0.0407
6 net_109:5 0.4130
7 inst_89:A2 0.3462
*RES
2 TAUGATE_243:Z net_109:1 0.0714
3 net_109:1 net_109:2 0.2110
4 net_109:2 net_109:3 0.2588
5 net_109:3 net_109:4 0.0339
6 net_109:4 net_109:5 0.0519
7 net_109:5 inst_89:A2 0.4874
*END

*D_NET TAUNET_221 1.1229
*CONN
*P v4 I
*I TAUGATE_221:A I
*CAP
1 v4 0.2489
2 TAUNET_221:1 0.0346
3 TAUNET_221:2 0.4333
4 TAUNET_221:3 0.0645
5 TAUGATE_221:A 0.3416
*RES
2 v4 TAUNET_221:1 0.4099
3 TAUNET_221:1 TAUNET_221:2 0.1540
4 TAUNET_221:2 TAUNET_221:3 0.0325
5 TAUNET_221:3 TAUGATE_221:A 0.0924
*END

*D_NET blif_reset_net 1.2932
*CONN
*I TAUGATE_249:Z O
*I inst_143:A I
*CAP
1 TAUGATE_249:Z 0.1516
2 blif_reset_net:1 0.4228
3 blif_reset_net:2 0.1417
4 blif_reset_net:3 0.3754
5 inst_143:A 0.2016
*RES
2 TAUGATE_249:Z blif_reset_net:1 0.0068
3 blif_reset_net:1 blif_reset_net:2 0.2001
4 blif_reset_net:2 blif_reset_net:3 0.4220
5 blif_reset_net:3 inst_143:A 0.4926
*END

*D_NET TAUNET_244 1.4952
*CONN
*I inst_124:ZN O
*I TAUGATE_244:A I
*CAP
1 inst_124:ZN 0.3810
2 TAUNET_244:1 0.2042
3 TAUNET_244:2 0.2030
4 TAUNET_244:3 0.2656
5 TAUGATE_244:A 0.4413
*RES
2 inst_124:ZN TAUNET_244:1 0.1336
3 TAUNET_244:1 TAUNET_244:2 0.4042
4 TAUNET_244:2 TAUNET_244:3 0.0451
5 TAUNET_244:3 TAUGATE_244:A 0.2391
*END

*D_NET net_65 6.2782
*CONN
*I TAUGATE_235:Z O
*I inst_33:A3 I
*I inst_68:A2 I
*I inst_25:A1 I
*I inst_35:A3 I
*I inst_36:A2 I
*I inst_73:A2 I
*CAP
1 TAUGATE_235:Z 0.4146
2 net_65:1 0.2654
3 inst_33:A3 0.2245
4 net_65:2 0.4235
5 inst_68:A2 0.1903
6 net_65:3 0.4838
7 net_65:4 0.0722
8 net_65:5 0.3539
9 inst_25:A1 0.3446
10 net_65:6 0.1347
11 net_65:7 0.0224
12 inst_35:A3 0.3933
13 net_65:8 0.4918
14 net_65:9 0.3583
15 net_65:10 0.0251
16 net_65:11 0.0071
17 inst_36:A2 0.2242
18 net_65:12 0.3703
19 net_65:13 0.0365
20 net_65:14 0.4409
21 net_65:15 0.4335
22 net_65:16 0.3158
23 inst_73:A2 0.2513
*RES
2 TAUGATE_235:Z net_65:1 0.4797
3 net_65:1 inst_33:A3 0.0551
4 net_65:1 net_65:2 0.2143
5 net_65:2 inst_68:A2 0.0701
6 net_65:2 net_65:3 0.0192
7 net_65:3 net_65:4 0.1341
8 net_65:4 net_65:5 0.4054
9 net_65:5 inst_25:A1 0.3681
10 net_65:5 net_65:6 0.2244
11 net_65:6 net_65:7 0.4154
12 net_65:7 inst_35:A3 0.1374
13 net_65:3 net_65:8 0.4834