*SPEF "IEEE 1481-1998"
*DESIGN "changes"
*DATE "Tue Dec 02 20:36:33 2014"
*VENDOR "TAU 2015 Contest"
*PROGRAM "Benchmark Parasitic Generator"
*VERSION "0.0"
*DESIGN_FLOW "NETLIST_TYPE_VERILOG"
*DIVIDER /
*DELIMITER :
*BUS_DELIMITER [ ]
*T_UNIT 1 PS
*C_UNIT 1 FF
*R_UNIT 1 KOHM
*L_UNIT 1 UH

*D_NET TAUNET_4 1.7439
*CONN
*I TAUGATE_30:Z O
*I TAUGATE_4:A I
*CAP
1 TAUGATE_30:Z 0.2611
2 TAUNET_4:1 0.4098
3 TAUNET_4:2 0.5009
4 TAUNET_4:3 0.2843
5 TAUGATE_4:A 0.2878
*RES
2 TAUGATE_30:Z TAUNET_4:1 0.1659
3 TAUNET_4:1 TAUNET_4:2 0.2742
4 TAUNET_4:2 TAUNET_4:3 0.3494
5 TAUNET_4:3 TAUGATE_4:A 0.1485
*END

*D_NET TAUNET_13 1.3760
*CONN
*I inst_46:ZN O
*I TAUGATE_13:A I
*CAP
1 inst_46:ZN 0.2110
2 TAUNET_13:1 0.3070
3 TAUNET_13:2 0.3583
4 TAUNET_13:3 0.1395
5 TAUNET_13:4 0.0646
6 TAUNET_13:5 0.0794
7 TAUGATE_13:A 0.2161
*RES
2 inst_46:ZN TAUNET_13:1 0.1614
3 TAUNET_13:1 TAUNET_13:2 0.3312
4 TAUNET_13:2 TAUNET_13:3 0.3755
5 TAUNET_13:3 TAUNET_13:4 0.4644
6 TAUNET_13:4 TAUNET_13:5 0.4559
7 TAUNET_13:5 TAUGATE_13:A 0.4050
*END

*D_NET TAUNET_12 0.4849
*CONN
*I inst_31:ZN O
*I TAUGATE_12:A I
*CAP
1 inst_31:ZN 0.1670
2 TAUNET_12:1 0.2440
3 TAUNET_12:2 0.0332
4 TAUGATE_12:A 0.0406
*RES
2 inst_31:ZN TAUNET_12:1 0.2732
3 TAUNET_12:1 TAUNET_12:2 0.0073
4 TAUNET_12:2 TAUGATE_12:A 0.1308
*END

*D_NET net_116 3.2076
*CONN
*I TAUGATE_17:Z O
*I inst_8:A3 I
*I inst_22:A2 I
*CAP
1 TAUGATE_17:Z 0.2909
2 net_116:1 0.0740
3 net_116:2 0.4871
4 net_116:3 0.4951
5 net_116:4 0.4125
6 inst_8:A3 0.0565
7 net_116:5 0.4708
8 net_116:6 0.3056
9 net_116:7 0.3464
10 net_116:8 0.0305
11 inst_22:A2 0.2383
*RES
2 TAUGATE_17:Z net_116:1 0.1285
3 net_116:1 net_116:2 0.0292
4 net_116:2 net_116:3 0.2926
5 net_116:3 net_116:4 0.4507
6 net_116:4 inst_8:A3 0.3356
7 net_116:4 net_116:5 0.4020
8 net_116:5 net_116:6 0.2529
9 net_116:6 net_116:7 0.2665
10 net_116:7 net_116:8 0.4354
11 net_116:8 inst_22:A2 0.1977
*END

*D_NET net_105 1.4247
*CONN
*I TAUGATE_10:Z O
*I inst_37:A1 I
*CAP
1 TAUGATE_10:Z 0.3276
2 net_105:1 0.3292
3 net_105:2 0.0716
4 net_105:3 0.2236
5 net_105:4 0.1922
6 inst_37:A1 0.2805
*RES
2 TAUGATE_10:Z net_105:1 0.1322
3 net_105:1 net_105:2 0.1905
4 net_105:2 net_105:3 0.4017
5 net_105:3 net_105:4 0.4680
6 net_105:4 inst_37:A1 0.2976
*END

*D_NET net_62 3.7540
*CONN
*I TAUGATE_29:Z O
*I inst_24:A4 I
*I inst_151:A4 I
*I inst_71:A2 I
*CAP
1 TAUGATE_29:Z 0.2927
2 net_62:1 0.2211
3 net_62:2 0.1955
4 net_62:3 0.1868
5 net_62:4 0.4889
6 inst_151:A4 0.0703
7 net_62:5 0.3990
8 inst_24:A4 0.4035
9 net_62:6 0.4976
10 net_62:7 0.3591
11 net_62:8 0.2780
12 net_62:9 0.2022
13 inst_71:A2 0.1593
*RES
2 TAUGATE_29:Z net_62:1 0.3298
3 net_62:1 net_62:2 0.4131
4 net_62:2 net_62:3 0.3310
5 net_62:3 net_62:4 0.2621
6 net_62:4 inst_151:A4 0.4792
7 net_62:2 net_62:5 0.0219
8 net_62:5 inst_24:A4 0.0830
9 net_62:1 net_62:6 0.4382
10 net_62:6 net_62:7 0.3498
11 net_62:7 net_62:8 0.4055
12 net_62:8 net_62:9 0.4519
13 net_62:9 inst_71:A2 0.4658
*END

*D_NET net_106 1.1222
*CONN
*I TAUGATE_49:Z O
*I inst_91:A1 I
*CAP
1 TAUGATE_49:Z 0.4019
2 net_106:1 0.2503
3 inst_91:A1 0.4700
*RES
2 TAUGATE_49:Z net_106:1 0.3789
3 net_106:1 inst_91:A1 0.3545
*END

*D_NET TAUNET_35 1.0398
*CONN
*I inst_22:ZN O
*I TAUGATE_35:A I
*CAP
1 inst_22:ZN 0.4316
2 TAUNET_35:1 0.4734
3 TAUNET_35:2 0.0376
4 TAUGATE_35:A 0.0972
*RES
2 inst_22:ZN TAUNET_35:1 0.3594
3 TAUNET_35:1 TAUNET_35:2 0.0525
4 TAUNET_35:2 TAUGATE_35:A 0.3248
*END

*D_NET net_118 1.7532
*CONN
*I TAUGATE_11:Z O
*I inst_48:A1 I
*CAP
1 TAUGATE_11:Z 0.1267
2 net_118:1 0.2434
3 net_118:2 0.3726
4 net_118:3 0.2980
5 net_118:4 0.2454
6 inst_48:A1 0.4670
*RES
2 TAUGATE_11:Z net_118:1 0.1921
3 net_118:1 net_118:2 0.1376
4 net_118:2 net_118:3 0.4443
5 net_118:3 net_118:4 0.1288
6 net_118:4 inst_48:A1 0.3022
*END

*D_NET net_98 1.8873
*CONN
*I TAUGATE_55:Z O
*I inst_149:D I
*CAP
1 TAUGATE_55:Z 0.0668
2 net_98:1 0.4131
3 net_98:2 0.4004
4 net_98:3 0.4814
5 net_98:4 0.1341
6 inst_149:D 0.3915
*RES
2 TAUGATE_55:Z net_98:1 0.0282
3 net_98:1 net_98:2 0.3089
4 net_98:2 net_98:3 0.0253
5 net_98:3 net_98:4 0.3105
6 net_98:4 inst_149:D 0.1881
*END

*D_NET net_119 1.4805
*CONN
*I TAUGATE_36:Z O
*I inst_9:A1 I
*CAP
1 TAUGATE_36:Z 0.1592
2 net_119:1 0.2761
3 net_119:2 0.3643
4 net_119:3 0.2288
5 net_119:4 0.0666
6 inst_9:A1 0.3854
*RES
2 TAUGATE_36:Z net_119:1 0.3580
3 net_119:1 net_119:2 0.3774
4 net_119:2 net_119:3 0.2731
5 net_119:3 net_119:4 0.1525
6 net_119:4 inst_9:A1 0.0518
*END

*D_NET net_148 2.1332
*CONN
*I TAUGATE_24:Z O
*I inst_153:A2 I
*I inst_105:A I
*CAP
1 TAUGATE_24:Z 0.2154
2 net_148:1 0.1648
3 net_148:2 0.1855
4 net_148:3 0.0112
5 net_148:4 0.3530
6 net_148:5 0.1128
7 inst_105:A 0.2239
8 net_148:6 0.4381
9 net_148:7 0.3484
10 inst_153:A2 0.0801
*RES
2 TAUGATE_24:Z net_148:1 0.0917
3 net_148:1 net_148:2 0.4230
4 net_148:2 net_148:3 0.1494
5 net_148:3 net_148:4 0.3290
6 net_148:4 net_148:5 0.1620
7 net_148:5 inst_105:A 0.0029
8 net_148:4 net_148:6 0.1392
9 net_148:6 net_148:7 0.1891
10 net_148:7 inst_153:A2 0.0464
*END

*D_NET v13_D_12 1.0649
*CONN
*I TAUGATE_44:Z O
*P v13_D_12 O
*CAP
1 TAUGATE_44:Z 0.0279
2 v13_D_12:1 0.0649
3 v13_D_12:2 0.0510
4 v13_D_12:3 0.1600
5 v13_D_12:4 0.1748
6 v13_D_12:5 0.4787
7 v13_D_12 0.1076
*RES
2 TAUGATE_44:Z v13_D_12:1 0.4606
3 v13_D_12:1 v13_D_12:2 0.3388
4 v13_D_12:2 v13_D_12:3 0.4657
5 v13_D_12:3 v13_D_12:4 0.3595
6 v13_D_12:4 v13_D_12:5 0.2471
7 v13_D_12:5 v13_D_12 0.0832
*END

*D_NET TAUNET_46 0.8209
*CONN
*I inst_68:ZN O
*I TAUGATE_46:A I
*CAP
1 inst_68:ZN 0.3736
2 TAUNET_46:1 0.3644
3 TAUGATE_46:A 0.0829
*RES
2 inst_68:ZN TAUNET_46:1 0.1977
3 TAUNET_46:1 TAUGATE_46:A 0.4694
*END

*D_NET TAUNET_24 2.0853
*CONN
*I inst_147:QN O
*I TAUGATE_24:A I
*CAP
1 inst_147:QN 0.3882
2 TAUNET_24:1 0.0413
3 TAUNET_24:2 0.4651
4 TAUNET_24:3 0.4065
5 TAUNET_24:4 0.3164
6 TAUNET_24:5 0.3513
7 TAUGATE_24:A 0.1165
*RES
2 inst_147:QN TAUNET_24:1 0.0986
3 TAUNET_24:1 TAUNET_24:2 0.2243
4 TAUNET_24:2 TAUNET_24:3 0.1286
5 TAUNET_24:3 TAUNET_24:4 0.4269
6 TAUNET_24:4 TAUNET_24:5 0.2482
7 TAUNET_24:5 TAUGATE_24:A 0.2195
*END

*D_NET TAUNET_16 1.7569
*CONN
*I inst_141:ZN O
*I TAUGATE_16:A I
*CAP
1 inst_141:ZN 0.4091
2 TAUNET_16:1 0.3587
3 TAUNET_16:2 0.1869
4 TAUNET_16:3 0.4974
5 TAUGATE_16:A 0.3047
*RES
2 inst_141:ZN TAUNET_16:1 0.1200
3 TAUNET_16:1 TAUNET_16:2 0.4969
4 TAUNET_16:2 TAUNET_16:3 0.1210
5 TAUNET_16:3 TAUGATE_16:A 0.1733
*END

*D_NET net_135 2.0322
*CONN
*I TAUGATE_19:Z O
*I inst_99:A I
*I inst_32:A2 I
*CAP
1 TAUGATE_19:Z 0.0283
2 net_135:1 0.2945
3 net_135:2 0.3177
4 net_135:3 0.2101
5 inst_99:A 0.3390
6 net_135:4 0.3900
7 net_135:5 0.0557
8 net_135:6 0.1253
9 inst_32:A2 0.2716
*RES
2 TAUGATE_19:Z net_135:1 0.2046
3 net_135:1 net_135:2 0.3404
4 net_135:2 net_135:3 0.1317
5 net_135:3 inst_99:A 0.3617
6 net_135:3 net_135:4 0.3735
7 net_135:4 net_135:5 0.1079
8 net_135:5 net_135:6 0.3323
9 net_135:6 inst_32:A2 0.2907
*END

*D_NET TAUNET_31 1.4383
*CONN
*I TAUGATE_6:Z O
*I TAUGATE_31:A I
*CAP
1 TAUGATE_6:Z 0.4966
2 TAUNET_31:1 0.2702
3 TAUNET_31:2 0.2135
4 TAUNET_31:3 0.0419
5 TAUNET_31:4 0.2773
6 TAUNET_31:5 0.0903
7 TAUGATE_31:A 0.0485
*RES
2 TAUGATE_6:Z TAUNET_31:1 0.4602
3 TAUNET_31:1 TAUNET_31:2 0.4262
4 TAUNET_31:2 TAUNET_31:3 0.2009
5 TAUNET_31:3 TAUNET_31:4 0.3114
6 TAUNET_31:4 TAUNET_31:5 0.3090
7 TAUNET_31:5 TAUGATE_31:A 0.3972
*END

*D_NET TAUNET_25 1.1430
*CONN
*I inst_101:ZN O
*I TAUGATE_25:A I
*CAP
1 inst_101:ZN 0.2443
2 TAUNET_25:1 0.3734
3 TAUNET_25:2 0.1567
4 TAUNET_25:3 0.1247
5 TAUGATE_25:A 0.2439
*RES
2 inst_101:ZN TAUNET_25:1 0.2588
3 TAUNET_25:1 TAUNET_25:2 0.4474
4 TAUNET_25:2 TAUNET_25:3 0.3528
5 TAUNET_25:3 TAUGATE_25:A 0.0472
*END

*D_NET TAUNET_27 1.3929
*CONN
*I inst_44:ZN O
*I TAUGATE_27:A I
*CAP
1 inst_44:ZN 0.1981
2 TAUNET_27:1 0.0169
3 TAUNET_27:2 0.4026
4 TAUNET_27:3 0.4684
5 TAUNET_27:4 0.2490
6 TAUGATE_27:A 0.0579
*RES
2 inst_44:ZN TAUNET_27:1 0.0423
3 TAUNET_27:1 TAUNET_27:2 0.2861
4 TAUNET_27:2 TAUNET_27:3 0.4278
5 TAUNET_27:3 TAUNET_27:4 0.3875
6 TAUNET_27:4 TAUGATE_27:A 0.4796
*END

*D_NET net_130 1.0064
*CONN
*I TAUGATE_15:Z O
*I inst_88:A1 I
*CAP
1 TAUGATE_15:Z 0.1554
2 net_130:1 0.4380
3 inst_88:A1 0.4130
*RES
2 TAUGATE_15:Z net_130:1 0.4990
3 net_130:1 inst_88:A1 0.2134
*END

*D_NET TAUNET_28 2.0765
*CONN
*I inst_105:ZN O
*I TAUGATE_28:A I
*CAP
1 inst_105:ZN 0.4947
2 TAUNET_28:1 0.2854
3 TAUNET_28:2 0.4464
4 TAUNET_28:3 0.2438
5 TAUNET_28:4 0.2969
6 TAUGATE_28:A 0.3091
*RES
2 inst_105:ZN TAUNET_28:1 0.5006
3 TAUNET_28:1 TAUNET_28:2 0.2264
4 TAUNET_28:2 TAUNET_28:3 0.3973
5 TAUNET_28:3 TAUNET_28:4 0.2044
6 TAUNET_28:4 TAUGATE_28:A 0.1531
*END

*D_NET TAUNET_57 1.2691
*CONN
*I TAUGATE_9:Z O
*I TAUGATE_57:A I
*CAP
1 TAUGATE_9:Z 0.2618
2 TAUNET_57:1 0.4002
3 TAUNET_57:2 0.3652
4 TAUNET_57:3 0.1857
5 TAUGATE_57:A 0.0562
*RES
2 TAUGATE_9:Z TAUNET_57:1 0.0882
3 TAUNET_57:1 TAUNET_57:2 0.4386
4 TAUNET_57:2 TAUNET_57:3 0.2715
5 TAUNET_57:3 TAUGATE_57:A 0.0199
*END

*D_NET TAUNET_37 0.5520
*CONN
*I inst_94:ZN O
*I TAUGATE_37:A I
*CAP
1 inst_94:ZN 0.1459
2 TAUNET_37:1 0.1026
3 TAUNET_37:2 0.1939
4 TAUGATE_37:A 0.1095
*RES
2 inst_94:ZN TAUNET_37:1 0.0212
3 TAUNET_37:1 TAUNET_37:2 0.1417
4 TAUNET_37:2 TAUGATE_37:A 0.2190
*END

*D_NET TAUNET_32 1.5644
*CONN
*I inst_85:ZN O
*I TAUGATE_32:A I
*CAP
1 inst_85:ZN 0.1138
2 TAUNET_32:1 0.3663
3 TAUNET_32:2 0.2540
4 TAUNET_32:3 0.0526
5 TAUNET_32:4 0.2388
6 TAUNET_32:5 0.1787
7 TAUGATE_32:A 0.3603
*RES
2 inst_85:ZN TAUNET_32:1 0.0603
3 TAUNET_32:1 TAUNET_32:2 0.0863
4 TAUNET_32:2 TAUNET_32:3 0.3102
5 TAUNET_32:3 TAUNET_32:4 0.1239
6 TAUNET_32:4 TAUNET_32:5 0.2473
7 TAUNET_32:5 TAUGATE_32:A 0.0055
*END

*D_NET TAUNET_38 1.2459
*CONN
*I inst_93:ZN O
*I TAUGATE_38:A I
*CAP
1 inst_93:ZN 0.2412
2 TAUNET_38:1 0.4441
3 TAUNET_38:2 0.4218
4 TAUNET_38:3 0.0848
5 TAUNET_38:4 0.0266
6 TAUGATE_38:A 0.0274
*RES
2 inst_93:ZN TAUNET_38:1 0.4218
3 TAUNET_38:1 TAUNET_38:2 0.2061
4 TAUNET_38:2 TAUNET_38:3 0.2110
5 TAUNET_38:3 TAUNET_38:4 0.4583
6 TAUNET_38:4 TAUGATE_38:A 0.3985
*END

*D_NET net_113 1.9898
*CONN
*I TAUGATE_47:Z O
*I inst_49:A1 I
*CAP
1 TAUGATE_47:Z 0.0725
2 net_113:1 0.3124
3 net_113:2 0.3685
4 net_113:3 0.4317
5 net_113:4 0.1801
6 net_113:5 0.2826
7 inst_49:A1 0.3420
*RES
2 TAUGATE_47:Z net_113:1 0.0965
3 net_113:1 net_113:2 0.2555
4 net_113:2 net_113:3 0.1304
5 net_113:3 net_113:4 0.3675
6 net_113:4 net_113:5 0.4634
7 net_113:5 inst_49:A1 0.2869
*END

*D_NET TAUNET_40 0.5511
*CONN
*I inst_66:ZN O
*I TAUGATE_40:A I
*CAP
1 inst_66:ZN 0.1182
2 TAUNET_40:1 0.0608
3 TAUGATE_40:A 0.3721
*RES
2 inst_66:ZN TAUNET_40:1 0.4648
3 TAUNET_40:1 TAUGATE_40:A 0.2376
*END

*D_NET TAUNET_20 0.8353
*CONN
*I inst_57:ZN O
*I TAUGATE_20:A I
*CAP
1 inst_57:ZN 0.3081
2 TAUNET_20:1 0.0264
3 TAUNET_20:2 0.2502
4 TAUGATE_20:A 0.2506
*RES
2 inst_57:ZN TAUNET_20:1 0.4486
3 TAUNET_20:1 TAUNET_20:2 0.0641
4 TAUNET_20:2 TAUGATE_20:A 0.0138
*END

*D_NET TAUNET_14 0.7959
*CONN
*P v4 I
*I TAUGATE_14:A I
*CAP
1 v4 0.0204
2 TAUNET_14:1 0.1001
3 TAUNET_14:2 0.2747
4 TAUNET_14:3 0.1704
5 TAUGATE_14:A 0.2303
*RES
2 v4 TAUNET_14:1 0.0121
3 TAUNET_14:1 TAUNET_14:2 0.0620
4 TAUNET_14:2 TAUNET_14:3 0.0267
5 TAUNET_14:3 TAUGATE_14:A 0.1278
*END

*D_NET net_11 1.5058
*CONN
*I TAUGATE_20:Z O
*I inst_36:A3 I
*CAP
1 TAUGATE_20:Z 0.3621
2 net_11:1 0.3490
3 net_11:2 0.4751
4 inst_36:A3 0.3195
*RES
2 TAUGATE_20:Z net_11:1 0.4748
3 net_11:1 net_11:2 0.2505
4 net_11:2 inst_36:A3 0.2036
*END

*D_NET net_123 1.2849
*CONN
*I TAUGATE_32:Z O
*I inst_50:A1 I
*CAP
1 TAUGATE_32:Z 0.0185
2 net_123:1 0.2437
3 net_123:2 0.3641
4 net_123:3 0.1411
5 net_123:4 0.2452
6 inst_50:A1 0.2723
*RES
2 TAUGATE_32:Z net_123:1 0.2079
3 net_123:1 net_123:2 0.2449
4 net_123:2 net_123:3 0.0406
5 net_123:3 net_123:4 0.0917
6 net_123:4 inst_50:A1 0.0078
*END

*D_NET net_131 1.7463
*CONN
*I TAUGATE_25:Z O
*I inst_55:A1 I
*I inst_11:A1 I
*CAP
1 TAUGATE_25:Z 0.0264
2 net_131:1 0.1906
3 inst_55:A1 0.1553
4 net_131:2 0.5008
5 net_131:3 0.2979
6 net_131:4 0.3428
7 inst_11:A1 0.2325
*RES
2 TAUGATE_25:Z net_131:1 0.0937
3 net_131:1 inst_55:A1 0.2944
4 net_131:1 net_131:2 0.2733
5 net_131:2 net_131:3 0.1266
6 net_131:3 net_131:4 0.3814
7 net_131:4 inst_11:A1 0.1363
*END

*D_NET TAUNET_49 1.9996
*CONN
*I inst_52:ZN O
*I TAUGATE_49:A I
*CAP
1 inst_52:ZN 0.3144
2 TAUNET_49:1 0.3676
3 TAUNET_49:2 0.1603
4 TAUNET_49:3 0.4423
5 TAUNET_49:4 0.1159
6 TAUNET_49:5 0.4527
7 TAUGATE_49:A 0.1465
*RES
2 inst_52:ZN TAUNET_49:1 0.1463
3 TAUNET_49:1 TAUNET_49:2 0.4621
4 TAUNET_49:2 TAUNET_49:3 0.4065
5 TAUNET_49:3 TAUNET_49:4 0.0227
6 TAUNET_49:4 TAUNET_49:5 0.2236
7 TAUNET_49:5 TAUGATE_49:A 0.4114
*END

*D_NET net_29 0.9678
*CONN
*I TAUGATE_21:Z O
*I inst_75:A2 I
*CAP
1 TAUGATE_21:Z 0.1546
2 net_29:1 0.4367
3 net_29:2 0.3452
4 inst_75:A2 0.0313
*RES
2 TAUGATE_21:Z net_29:1 0.1217
3 net_29:1 net_29:2 0.0111
4 net_29:2 inst_75:A2 0.1222
*END

*D_NET net_77 3.8533
*CONN
*I TAUGATE_57:Z O
*I inst_5:A2 I
*I inst_92:A1 I
*CAP
1 TAUGATE_57:Z 0.1692
2 net_77:1 0.4978
3 net_77:2 0.2563
4 net_77:3 0.2595
5 net_77:4 0.2603
6 net_77:5 0.2874
7 inst_5:A2 0.3072
8 net_77:6 0.4796
9 net_77:7 0.3806
10 net_77:8 0.4946
11 inst_92:A1 0.4608
*RES
2 TAUGATE_57:Z net_77:1 0.2768
3 net_77:1 net_77:2 0.1679
4 net_77:2 net_77:3 0.2053
5 net_77:3 net_77:4 0.2140
6 net_77:4 net_77:5 0.3306
7 net_77:5 inst_5:A2 0.1569
8 net_77:3 net_77:6 0.4692
9 net_77:6 net_77:7 0.4766
10 net_77:7 net_77:8 0.0589
11 net_77:8 inst_92:A1 0.0962
*END

*D_NET net_142 1.3235
*CONN
*I TAUGATE_34:Z O
*I inst_76:A2 I
*CAP
1 TAUGATE_34:Z 0.1750
2 net_142:1 0.0845
3 net_142:2 0.1888
4 net_142:3 0.1436
5 net_142:4 0.1762
6 net_142:5 0.4748
7 inst_76:A2 0.0806
*RES
2 TAUGATE_34:Z net_142:1 0.0407
3 net_142:1 net_142:2 0.2069
4 net_142:2 net_142:3 0.0491
5 net_142:3 net_142:4 0.4137
6 net_142:4 net_142:5 0.3046
7 net_142:5 inst_76:A2 0.2987
*END

*D_NET TAUNET_50 1.6284
*CONN
*I inst_58:ZN O
*I TAUGATE_50:A I
*CAP
1 inst_58:ZN 0.1831
2 TAUNET_50:1 0.0191
3 TAUNET_50:2 0.3538
4 TAUNET_50:3 0.4300
5 TAUNET_50:4 0.3629
6 TAUNET_50:5 0.0787
7 TAUGATE_50:A 0.2007
*RES
2 inst_58:ZN TAUNET_50:1 0.2971
3 TAUNET_50:1 TAUNET_50:2 0.4025
4 TAUNET_50:2 TAUNET_50:3 0.5010
5 TAUNET_50:3 TAUNET_50:4 0.3538
6 TAUNET_50:4 TAUNET_50:5 0.4649
7 TAUNET_50:5 TAUGATE_50:A 0.0482
*END

*D_NET net_20 1.9070
*CONN
*I TAUGATE_56:Z O
*I inst_66:A2 I
*CAP
1 TAUGATE_56:Z 0.2963
2 net_20:1 0.2002
3 net_20:2 0.2573
4 net_20:3 0.3761
5 net_20:4 0.0616
6 net_20:5 0.4298
7 inst_66:A2 0.2857
*RES
2 TAUGATE_56:Z net_20:1 0.2634
3 net_20:1 net_20:2 0.0470
4 net_20:2 net_20:3 0.0745
5 net_20:3 net_20:4 0.1738
6 net_20:4 net_20:5 0.4336
7 net_20:5 inst_66:A2 0.4556
*END

*D_NET net_31 6.7736
*CONN
*I TAUGATE_26:Z O
*I inst_83:A2 I
*I inst_47:A2 I
*I inst_155:A2 I
*I inst_51:A2 I
*I inst_17:A2 I
*I inst_25:A4 I
*I inst_60:A1 I
*I inst_88:A2 I
*CAP
1 TAUGATE_26:Z 0.0036
2 net_31:1 0.2737
3 net_31:2 0.3095
4 inst_155:A2 0.4895
5 net_31:3 0.3671
6 inst_47:A2 0.3815
7 net_31:4 0.1379
8 net_31:5 0.1139
9 net_31:6 0.0489
10 net_31:7 0.0861
11 net_31:8 0.1477
12 inst_83:A2 0.4806
13 net_31:9 0.4236
14 net_31:10 0.3328
15 inst_51:A2 0.1906
16 net_31:11 0.4963
17 inst_17:A2 0.2377
18 net_31:12 0.3400
19 net_31:13 0.2352
20 net_31:14 0.3112
21 net_31:15 0.1345
22 inst_25:A4 0.4134
23 net_31:16 0.2112
24 net_31:17 0.2343
25 inst_60:A1 0.1106
26 net_31:18 0.1702
27 net_31:19 0.0535
28 inst_88:A2 0.0383
*RES
2 TAUGATE_26:Z net_31:1 0.4033
3 net_31:1 net_31:2 0.2734
4 net_31:2 inst_155:A2 0.3461
5 net_31:2 net_31:3 0.1458
6 net_31:3 inst_47:A2 0.4915
7 net_31:2 net_31:4 0.3473
8 net_31:4 net_31:5 0.1114
9 net_31:5 net_31:6 0.0198
10 net_31:6 net_31:7 0.2366
11 net_31:7 net_31:8 0.1100
12 net_31:8 inst_83:A2 0.2818
13 net_31:5 net_31:9 0.5003
14 net_31:9 net_31:10 0.4347
15 net_31:10 inst_51:A2 0.3044
16 net_31:3 net_31:11 0.2571
17 net_31:11 inst_17:A2 0.3610
18 net_31:7 net_31:12 0.0741
19 net_31:12 net_31:13 0.4290
20 net_31:13 net_31:14 0.4891
21 net_31:14 net_31:15 0.0621
22 net_31:15 inst_25:A4 0.2122
23 net_31:6 net_31:16 0.0283
24 net_31:16 net_31:17 0.2644
25 net_31:17 inst_60:A1 0.3395
26 net_31:15 net_31:18 0.2939
27 net_31:18 net_31:19 0.2177
28 net_31:19 inst_88:A2 0.0520
*END

*D_NET TAUNET_23 1.5382
*CONN
*I inst_152:ZN O
*I TAUGATE_23:A I
*CAP
1 inst_152:ZN 0.3277
2 TAUNET_23:1 0.1825
3 TAUNET_23:2 0.4154
4 TAUNET_23:3 0.4205
5 TAUGATE_23:A 0.1921
*RES
2 inst_152:ZN TAUNET_23:1 0.3303
3 TAUNET_23:1 TAUNET_23:2 0.0500
4 TAUNET_23:2 TAUNET_23:3 0.3450
5 TAUNET_23:3 TAUGATE_23:A 0.2552
*END

*D_NET TAUNET_39 0.9333
*CONN
*I inst_132:ZN O
*I TAUGATE_39:A I
*CAP
1 inst_132:ZN 0.3943
2 TAUNET_39:1 0.3586
3 TAUGATE_39:A 0.1804
*RES
2 inst_132:ZN TAUNET_39:1 0.2132
3 TAUNET_39:1 TAUGATE_39:A 0.3448
*END

*D_NET net_4 0.6797
*CONN
*I TAUGATE_37:Z O
*I inst_69:A2 I
*CAP
1 TAUGATE_37:Z 0.0169
2 net_4:1 0.3418
3 net_4:2 0.0277
4 net_4:3 0.2232
5 inst_69:A2 0.0700
*RES
2 TAUGATE_37:Z net_4:1 0.3825
3 net_4:1 net_4:2 0.4916
4 net_4:2 net_4:3 0.0258
5 net_4:3 inst_69:A2 0.0722
*END

*D_NET net_17 0.1761
*CONN
*I TAUGATE_16:Z O
*I inst_6:A1 I
*CAP
1 TAUGATE_16:Z 0.0274
2 net_17:1 0.0758
3 inst_6:A1 0.0730
*RES
2 TAUGATE_16:Z net_17:1 0.2996
3 net_17:1 inst_6:A1 0.1500
*END

*D_NET net_36 3.5309
*CONN
*I TAUGATE_13:Z O
*I inst_127:A I
*I inst_18:A2 I
*I inst_16:A1 I
*I inst_75:A1 I
*CAP
1 TAUGATE_13:Z 0.0605
2 net_36:1 0.4347
3 net_36:2 0.2976
4 inst_16:A1 0.3531
5 net_36:3 0.2983
6 net_36:4 0.4269
7 net_36:5 0.0493
8 net_36:6 0.0341
9 inst_18:A2 0.3020
10 net_36:7 0.3051
11 inst_127:A 0.1197
12 net_36:8 0.3150
13 net_36:9 0.0137
14 net_36:10 0.2108
15 inst_75:A1 0.3101
*RES
2 TAUGATE_13:Z net_36:1 0.0316
3 net_36:1 net_36:2 0.1823
4 net_36:2 inst_16:A1 0.0755
5 net_36:2 net_36:3 0.3389
6 net_36:3 net_36:4 0.4000
7 net_36:4 net_36:5 0.0188
8 net_36:5 net_36:6 0.4709
9 net_36:6 inst_18:A2 0.4204
10 net_36:3 net_36:7 0.2956
11 net_36:7 inst_127:A 0.2210
12 net_36:2 net_36:8 0.0161
13 net_36:8 net_36:9 0.2047
14 net_36:9 net_36:10 0.3729
15 net_36:10 inst_75:A1 0.0610
*END

*D_NET v4 3.7688
*CONN
*I TAUGATE_14:Z O
*I inst_150:A1 I
*I inst_37:A3 I
*I inst_106:A I
*CAP
1 TAUGATE_14:Z 0.2910
2 v4:1 0.3083
3 v4:2 0.1250
4 v4:3 0.3526
5 v4:4 0.3715
6 inst_106:A 0.3144
7 v4:5 0.3118
8 v4:6 0.4981
9 v4:7 0.3134
10 v4:8 0.4059
11 v4:9 0.1396
12 inst_37:A3 0.0910
13 v4:10 0.1986
14 inst_150:A1 0.0476
*RES
2 TAUGATE_14:Z v4:1 0.3618
3 v4:1 v4:2 0.0820
4 v4:2 v4:3 0.2174
5 v4:3 v4:4 0.3638
6 v4:4 inst_106:A 0.4097
7 v4:2 v4:5 0.1278
8 v4:5 v4:6 0.3093
9 v4:6 v4:7 0.3342
10 v4:7 v4:8 0.2150
11 v4:8 v4:9 0.0109
12 v4:9 inst_37:A3 0.1830
13 v4:1 v4:10 0.0521
14 v4:10 inst_150:A1 0.0546
*END

*D_NET TAUNET_51 1.7875
*CONN
*I inst_37:ZN O
*I TAUGATE_51:A I
*CAP
1 inst_37:ZN 0.2737
2 TAUNET_51:1 0.2677
3 TAUNET_51:2 0.2426
4 TAUNET_51:3 0.1466
5 TAUNET_51:4 0.2784
6 TAUNET_51:5 0.2008
7 TAUGATE_51:A 0.3776
*RES
2 inst_37:ZN TAUNET_51:1 0.2937
3 TAUNET_51:1 TAUNET_51:2 0.0093
4 TAUNET_51:2 TAUNET_51:3 0.2822
5 TAUNET_51:3 TAUNET_51:4 0.4311
6 TAUNET_51:4 TAUNET_51:5 0.0309
7 TAUNET_51:5 TAUGATE_51:A 0.1138
*END

*D_NET net_41 2.9583
*CONN
*I TAUGATE_58:Z O
*I inst_20:A2 I
*I inst_66:A1 I
*CAP
1 TAUGATE_58:Z 0.3567
2 net_41:1 0.2336
3 net_41:2 0.3863
4 net_41:3 0.2365
5 net_41:4 0.1037
6 inst_66:A1 0.3572
7 net_41:5 0.4262
8 net_41:6 0.3737
9 net_41:7 0.3015
10 inst_20:A2 0.1830
*RES
2 TAUGATE_58:Z net_41:1 0.2211
3 net_41:1 net_41:2 0.2185
4 net_41:2 net_41:3 0.2266
5 net_41:3 net_41:4 0.2538
6 net_41:4 inst_66:A1 0.1297
7 net_41:2 net_41:5 0.3035
8 net_41:5 net_41:6 0.4053
9 net_41:6 net_41:7 0.0863
10 net_41:7 inst_20:A2 0.2362
*END

*D_NET TAUNET_19 1.0858
*CONN
*I inst_98:ZN O
*I TAUGATE_19:A I
*CAP
1 inst_98:ZN 0.0277
2 TAUNET_19:1 0.2912
3 TAUNET_19:2 0.1111
4 TAUNET_19:3 0.3711
5 TAUNET_19:4 0.0512
6 TAUNET_19:5 0.1351
7 TAUGATE_19:A 0.0984
*RES
2 inst_98:ZN TAUNET_19:1 0.0368
3 TAUNET_19:1 TAUNET_19:2 0.4376
4 TAUNET_19:2 TAUNET_19:3 0.1423
5 TAUNET_19:3 TAUNET_19:4 0.1283
6 TAUNET_19:4 TAUNET_19:5 0.1146
7 TAUNET_19:5 TAUGATE_19:A 0.3234
*END

*D_NET TAUNET_34 1.6441
*CONN
*I inst_32:ZN O
*I TAUGATE_34:A I
*CAP
1 inst_32:ZN 0.4832
2 TAUNET_34:1 0.3781
3 TAUNET_34:2 0.3766
4 TAUNET_34:3 0.0185
5 TAUGATE_34:A 0.3877
*RES
2 inst_32:ZN TAUNET_34:1 0.1588
3 TAUNET_34:1 TAUNET_34:2 0.3738
4 TAUNET_34:2 TAUNET_34:3 0.4556
5 TAUNET_34:3 TAUGATE_34:A 0.1835
*END

*D_NET TAUNET_54 1.1460
*CONN
*I inst_10:ZN O
*I TAUGATE_54:A I
*CAP
1 inst_10:ZN 0.2614
2 TAUNET_54:1 0.2164
3 TAUNET_54:2 0.4372
4 TAUNET_54:3 0.1158
5 TAUGATE_54:A 0.1153
*RES
2 inst_10:ZN TAUNET_54:1 0.3810
3 TAUNET_54:1 TAUNET_54:2 0.1100
4 TAUNET_54:2 TAUNET_54:3 0.1662
5 TAUNET_54:3 TAUGATE_54:A 0.3178
*END

*D_NET TAUNET_44 1.6719
*CONN
*I inst_5:ZN O
*I TAUGATE_44:A I
*CAP
1 inst_5:ZN 0.2497
2 TAUNET_44:1 0.2343
3 TAUNET_44:2 0.0981
4 TAUNET_44:3 0.3461
5 TAUNET_44:4 0.2382
6 TAUNET_44:5 0.4109
7 TAUGATE_44:A 0.0945
*RES
2 inst_5:ZN TAUNET_44:1 0.2326
3 TAUNET_44:1 TAUNET_44:2 0.0121
4 TAUNET_44:2 TAUNET_44:3 0.2674
5 TAUNET_44:3 TAUNET_44:4 0.2072
6 TAUNET_44:4 TAUNET_44:5 0.0414
7 TAUNET_44:5 TAUGATE_44:A 0.2455
*END

*D_NET v13_D_11 1.7627
*CONN
*I TAUGATE_38:Z O
*P v13_D_11 O
*CAP
1 TAUGATE_38:Z 0.0138
2 v13_D_11:1 0.3131
3 v13_D_11:2 0.4392
4 v13_D_11:3 0.4048
5 v13_D_11:4 0.0368
6 v13_D_11:5 0.3283
7 v13_D_11 0.2266
*RES
2 TAUGATE_38:Z v13_D_11:1 0.4199
3 v13_D_11:1 v13_D_11:2 0.3736
4 v13_D_11:2 v13_D_11:3 0.3306
5 v13_D_11:3 v13_D_11:4 0.3042
6 v13_D_11:4 v13_D_11:5 0.1317
7 v13_D_11:5 v13_D_11 0.1481
*END

*D_NET TAUNET_43 1.0046
*CONN
*I inst_40:ZN O
*I TAUGATE_43:A I
*CAP
1 inst_40:ZN 0.2201
2 TAUNET_43:1 0.3013
3 TAUNET_43:2 0.0758
4 TAUNET_43:3 0.0262
5 TAUGATE_43:A 0.3812
*RES
2 inst_40:ZN TAUNET_43:1 0.0656
3 TAUNET_43:1 TAUNET_43:2 0.1550
4 TAUNET_43:2 TAUNET_43:3 0.0047
5 TAUNET_43:3 TAUGATE_43:A 0.1418
*END

*D_NET v6 1.5283
*CONN
*I TAUGATE_42:Z O
*I inst_4:A4 I
*CAP
1 TAUGATE_42:Z 0.3805
2 v6:1 0.0497
3 v6:2 0.4938
4 v6:3 0.3913
5 inst_4:A4 0.2131
*RES
2 TAUGATE_42:Z v6:1 0.3201
3 v6:1 v6:2 0.0320
4 v6:2 v6:3 0.2786
5 v6:3 inst_4:A4 0.3378
*END

*D_NET TAUNET_56 2.0655
*CONN
*I inst_28:ZN O
*I TAUGATE_56:A I
*CAP
1 inst_28:ZN 0.2454
2 TAUNET_56:1 0.2663
3 TAUNET_56:2 0.3641
4 TAUNET_56:3 0.1740
5 TAUNET_56:4 0.2701
6 TAUNET_56:5 0.3351
7 TAUGATE_56:A 0.4105
*RES
2 inst_28:ZN TAUNET_56:1 0.3004
3 TAUNET_56:1 TAUNET_56:2 0.3665
4 TAUNET_56:2 TAUNET_56:3 0.1341
5 TAUNET_56:3 TAUNET_56:4 0.0859
6 TAUNET_56:4 TAUNET_56:5 0.1706
7 TAUNET_56:5 TAUGATE_56:A 0.3812
*END

*D_NET TAUNET_55 0.4838
*CONN
*I inst_136:ZN O
*I TAUGATE_55:A I
*CAP
1 inst_136:ZN 0.1227
2 TAUNET_55:1 0.0059
3 TAUGATE_55:A 0.3552
*RES
2 inst_136:ZN TAUNET_55:1 0.3839
3 TAUNET_55:1 TAUGATE_55:A 0.1840
*END

*D_NET TAUNET_11 2.5126
*CONN
*I inst_73:ZN O
*I TAUGATE_11:A I
*CAP
1 inst_73:ZN 0.3573
2 TAUNET_11:1 0.3575
3 TAUNET_11:2 0.1715
4 TAUNET_11:3 0.3050
5 TAUNET_11:4 0.3594
6 TAUNET_11:5 0.4902
7 TAUGATE_11:A 0.4716
*RES
2 inst_73:ZN TAUNET_11:1 0.2112
3 TAUNET_11:1 TAUNET_11:2 0.1762
4 TAUNET_11:2 TAUNET_11:3 0.1166
5 TAUNET_11:3 TAUNET_11:4 0.1660
6 TAUNET_11:4 TAUNET_11:5 0.2177
7 TAUNET_11:5 TAUGATE_11:A 0.2908
*END

*D_NET TAUNET_33 1.2533
*CONN
*I inst_130:ZN O
*I TAUGATE_33:A I
*CAP
1 inst_130:ZN 0.3308
2 TAUNET_33:1 0.4669
3 TAUNET_33:2 0.1932
4 TAUNET_33:3 0.0675
5 TAUNET_33:4 0.0053
6 TAUNET_33:5 0.1459
7 TAUGATE_33:A 0.0437
*RES
2 inst_130:ZN TAUNET_33:1 0.4598
3 TAUNET_33:1 TAUNET_33:2 0.3838
4 TAUNET_33:2 TAUNET_33:3 0.2033
5 TAUNET_33:3 TAUNET_33:4 0.3263
6 TAUNET_33:4 TAUNET_33:5 0.4574
7 TAUNET_33:5 TAUGATE_33:A 0.4683
*END

*D_NET net_92 6.5441
*CONN
*I TAUGATE_39:Z O
*I inst_44:A3 I
*I inst_42:A3 I
*I inst_152:A1 I
*I inst_43:A3 I
*CAP
1 TAUGATE_39:Z 0.4873
2 net_92:1 0.4800
3 net_92:2 0.4518
4 inst_42:A3 0.0570
5 net_92:3 0.2594
6 net_92:4 0.3565
7 net_92:5 0.4074
8 net_92:6 0.4309
9 net_92:7 0.4474
10 inst_44:A3 0.2931
11 net_92:8 0.4663
12 net_92:9 0.2866
13 net_92:10 0.1873
14 net_92:11 0.1599
15 net_92:12 0.3589
16 inst_152:A1 0.4697
17 net_92:13 0.4162
18 net_92:14 0.1285
19 net_92:15 0.0491
20 inst_43:A3 0.3511
*RES
2 TAUGATE_39:Z net_92:1 0.4909
3 net_92:1 net_92:2 0.0572
4 net_92:2 inst_42:A3 0.5008
5 net_92:1 net_92:3 0.2848
6 net_92:3 net_92:4 0.2246
7 net_92:4 net_92:5 0.3320
8 net_92:5 net_92:6 0.3870
9 net_92:6 net_92:7 0.3663
10 net_92:7 inst_44:A3 0.1512
11 net_92:2 net_92:8 0.4844
12 net_92:8 net_92:9 0.0401
13 net_92:9 net_92:10 0.2861
14 net_92:10 net_92:11 0.1883
15 net_92:11 net_92:12 0.3075
16 net_92:12 inst_152:A1 0.0604
17 net_92:10 net_92:13 0.2111
18 net_92:13 net_92:14 0.3010
19 net_92:14 net_92:15 0.1515
20 net_92:15 inst_43:A3 0.0492
*END

*D_NET TAUNET_22 1.1227
*CONN
*I inst_51:ZN O
*I TAUGATE_22:A I
*CAP
1 inst_51:ZN 0.0711
2 TAUNET_22:1 0.0021
3 TAUNET_22:2 0.2080
4 TAUNET_22:3 0.3529
5 TAUGATE_22:A 0.4886
*RES
2 inst_51:ZN TAUNET_22:1 0.3648
3 TAUNET_22:1 TAUNET_22:2 0.4404
4 TAUNET_22:2 TAUNET_22:3 0.3187
5 TAUNET_22:3 TAUGATE_22:A 0.4272
*END

*D_NET TAUNET_41 1.4415
*CONN
*I inst_9:ZN O
*I TAUGATE_41:A I
*CAP
1 inst_9:ZN 0.4026
2 TAUNET_41:1 0.1803
3 TAUNET_41:2 0.0882
4 TAUNET_41:3 0.2924
5 TAUGATE_41:A 0.4780
*RES
2 inst_9:ZN TAUNET_41:1 0.3510
3 TAUNET_41:1 TAUNET_41:2 0.1182
4 TAUNET_41:2 TAUNET_41:3 0.2614
5 TAUNET_41:3 TAUGATE_41:A 0.1530
*END

*D_NET TAUNET_30 1.0392
*CONN
*I inst_129:ZN O
*I TAUGATE_30:A I
*CAP
1 inst_129:ZN 0.4484
2 TAUNET_30:1 0.1986
3 TAUGATE_30:A 0.3922
*RES
2 inst_129:ZN TAUNET_30:1 0.3950
3 TAUNET_30:1 TAUGATE_30:A 0.2666
*END

*D_NET net_39 2.9101
*CONN
*I TAUGATE_33:Z O
*I inst_40:A2 I
*I inst_142:A I
*CAP
1 TAUGATE_33:Z 0.4671
2 net_39:1 0.3936
3 net_39:2 0.4880
4 net_39:3 0.4169
5 inst_142:A 0.3167
6 net_39:4 0.1908
7 net_39:5 0.1996
8 net_39:6 0.3123
9 inst_40:A2 0.1251
*RES
2 TAUGATE_33:Z net_39:1 0.3376
3 net_39:1 net_39:2 0.1073
4 net_39:2 net_39:3 0.3579
5 net_39:3 inst_142:A 0.1300
6 net_39:3 net_39:4 0.0048
7 net_39:4 net_39:5 0.3126
8 net_39:5 net_39:6 0.0195
9 net_39:6 inst_40:A2 0.0541
*END

*D_NET net_43 4.5443
*CONN
*I TAUGATE_59:Z O
*I inst_150:A2 I
*I inst_82:A1 I
*I inst_54:A2 I
*CAP
1 TAUGATE_59:Z 0.3260
2 net_43:1 0.4948
3 net_43:2 0.4038
4 net_43:3 0.1954
5 net_43:4 0.0063
6 inst_54:A2 0.4904
7 net_43:5 0.0661
8 net_43:6 0.0281
9 net_43:7 0.1011
10 inst_82:A1 0.2539
11 net_43:8 0.4596
12 net_43:9 0.3295
13 net_43:10 0.4724
14 net_43:11 0.4631
15 net_43:12 0.0407
16 inst_150:A2 0.4130
*RES
2 TAUGATE_59:Z net_43:1 0.0915
3 net_43:1 net_43:2 0.4619
4 net_43:2 net_43:3 0.1065
5 net_43:3 net_43:4 0.1990
6 net_43:4 inst_54:A2 0.2576
7 net_43:2 net_43:5 0.0765
8 net_43:5 net_43:6 0.1980
9 net_43:6 net_43:7 0.3226
10 net_43:7 inst_82:A1 0.1282
11 net_43:7 net_43:8 0.3462
12 net_43:8 net_43:9 0.0714
13 net_43:9 net_43:10 0.2110
14 net_43:10 net_43:11 0.2588
15 net_43:11 net_43:12 0.0339
16 net_43:12 inst_150:A2 0.0519
*END

*D_NET TAUNET_58 0.8283
*CONN
*I inst_0:ZN O
*I TAUGATE_58:A I
*CAP
1 inst_0:ZN 0.0374
2 TAUNET_58:1 0.2584
3 TAUNET_58:2 0.0346
4 TAUNET_58:3 0.4333
5 TAUGATE_58:A 0.0645
*RES
2 inst_0:ZN TAUNET_58:1 0.3416
3 TAUNET_58:1 TAUNET_58:2 0.4099
4 TAUNET_58:2 TAUNET_58:3 0.1540
5 TAUNET_58:3 TAUGATE_58:A 0.0325
*END

*D_NET TAUNET_5 1.0242
*CONN
*I TAUGATE_54:Z O
*I TAUGATE_5:A I
*CAP
1 TAUGATE_54:Z 0.1850
2 TAUNET_5:1 0.2746
3 TAUNET_5:2 0.4228
4 TAUGATE_5:A 0.1417
*RES
2 TAUGATE_54:Z TAUNET_5:1 0.3754
3 TAUNET_5:1 TAUNET_5:2 0.2016
4 TAUNET_5:2 TAUGATE_5:A 0.0068
*END

*D_NET net_144 1.7534
*CONN
*I TAUGATE_52:Z O
*I inst_95:A I
*CAP
1 TAUGATE_52:Z 0.4220
2 net_144:1 0.0580
3 net_144:2 0.3810
4 net_144:3 0.2195
5 net_144:4 0.2042
6 net_144:5 0.2030
7 inst_95:A 0.2656
*RES
2 TAUGATE_52:Z net_144:1 0.4413
3 net_144:1 net_144:2 0.1336
4 net_144:2 net_144:3 0.4042
5 net_144:3 net_144:4 0.0451
6 net_144:4 net_144:5 0.2391
7 net_144:5 inst_95:A 0.0321
*END

*D_NET net_42 1.0327
*CONN
*I TAUGATE_40:Z O
*I inst_78:A2 I
*CAP
1 TAUGATE_40:Z 0.0857
2 net_42:1 0.2245
3 net_42:2 0.4797
4 net_42:3 0.0551
5 inst_78:A2 0.1877
*RES
2 TAUGATE_40:Z net_42:1 0.0973
3 net_42:1 net_42:2 0.4235
4 net_42:2 net_42:3 0.1903
5 net_42:3 inst_78:A2 0.2143
*END

*D_NET net_120 1.8683
*CONN
*I TAUGATE_22:Z O
*I inst_90:A1 I
*CAP
1 TAUGATE_22:Z 0.2421
2 net_120:1 0.2497
3 net_120:2 0.2766
4 net_120:3 0.3086
5 net_120:4 0.2353
6 net_120:5 0.4838
7 inst_90:A1 0.0722
*RES
2 TAUGATE_22:Z net_120:1 0.3539
3 net_120:1 net_120:2 0.3446
4 net_120:2 net_120:3 0.0192
5 net_120:3 net_120:4 0.1341
6 net_120:4 net_120:5 0.4054
7 net_120:5 inst_90:A1 0.3681
*END

*D_NET TAUNET_52 0.7963
*CONN
*I inst_149:QN O
*I TAUGATE_52:A I
*CAP
1 inst_149:QN 0.1561
2 TAUNET_52:1 0.0224
3 TAUNET_52:2 0.3933
4 TAUGATE_52:A 0.2244
*RES
2 inst_149:QN TAUNET_52:1 0.4154
3 TAUNET_52:1 TAUNET_52:2 0.1374
4 TAUNET_52:2 TAUGATE_52:A 0.1713
*END

*D_NET TAUNET_59 1.8689
*CONN
*I inst_103:ZN O
*I TAUGATE_59:A I
*CAP
1 inst_103:ZN 0.3119
2 TAUNET_59:1 0.3583
3 TAUNET_59:2 0.0251
4 TAUNET_59:3 0.0071
5 TAUNET_59:4 0.2242
6 TAUNET_59:5 0.4834
7 TAUGATE_59:A 0.4589
*RES
2 inst_103:ZN TAUNET_59:1 0.0098
3 TAUNET_59:1 TAUNET_59:2 0.3264
4 TAUNET_59:2 TAUNET_59:3 0.2846
5 TAUNET_59:3 TAUNET_59:4 0.4721
6 TAUNET_59:4 TAUNET_59:5 0.1185
7 TAUNET_59:5 TAUGATE_59:A 0.4585
*END

*D_NET net_79 1.8587
*CONN
*I TAUGATE_35:Z O
*I inst_10:A3 I
*CAP
1 TAUGATE_35:Z 0.0365
2 net_79:1 0.4335
3 net_79:2 0.3158
4 net_79:3 0.2513
5 net_79:4 0.4798
6 net_79:5 0.1640
7 inst_10:A3 0.1778
*RES
2 TAUGATE_35:Z net_79:1 0.3155
3 net_79:1 net_79:2 0.4909
4 net_79:2 net_79:3 0.2285
5 net_79:3 net_79:4 0.2293
6 net_79:4 net_79:5 0.4514
7 net_79:5 inst_10:A3 0.1489
*END

*D_NET blif_reset_net 1.3305
*CONN
*I TAUGATE_48:Z O
*I inst_143:A I
*CAP
1 TAUGATE_48:Z 0.1815
2 blif_reset_net:1 0.3238
3 blif_reset_net:2 0.1536
4 blif_reset_net:3 0.2744
5 inst_143:A 0.3973
*RES
2 TAUGATE_48:Z blif_reset_net:1 0.0682
3 blif_reset_net:1 blif_reset_net:2 0.0813
4 blif_reset_net:2 blif_reset_net:3 0.2235
5 blif_reset_net:3 inst_143:A 0.0018
*END

*D_NET TAUNET_48 1.8273
*CONN
*P blif_reset_net I
*I TAUGATE_48:A I
*CAP
1 blif_reset_net 0.4580
2 TAUNET_48:1 0.4660
3 TAUNET_48:2 0.3296
4 TAUNET_48:3 0.2711
5 TAUNET_48:4 0.1177
6 TAUNET_48:5 0.1130
7 TAUGATE_48:A 0.0719
*RES
2 blif_reset_net TAUNET_48:1 0.2913
3 TAUNET_48:1 TAUNET_48:2 0.3837