*SPEF "IEEE 1481-1998"
*DESIGN "changes"
*DATE "Tue Dec 02 20:36:33 2014"
*VENDOR "TAU 2015 Contest"
*PROGRAM "Benchmark Parasitic Generator"
*VERSION "0.0"
*DESIGN_FLOW "NETLIST_TYPE_VERILOG"
*DIVIDER /
*DELIMITER :
*BUS_DELIMITER [ ]
*T_UNIT 1 PS
*C_UNIT 1 FF
*R_UNIT 1 KOHM
*L_UNIT 1 UH

*D_NET TAUNET_4 1.7439
*CONN
*I inst_129:ZN O
*I TAUGATE_4:A I
*CAP
1 inst_129:ZN 0.2611
2 TAUNET_4:1 0.4098
3 TAUNET_4:2 0.5009
4 TAUNET_4:3 0.2843
5 TAUGATE_4:A 0.2878
*RES
2 inst_129:ZN TAUNET_4:1 0.1659
3 TAUNET_4:1 TAUNET_4:2 0.2742
4 TAUNET_4:2 TAUNET_4:3 0.3494
5 TAUNET_4:3 TAUGATE_4:A 0.1485
*END

*D_NET TAUNET_2 1.3760
*CONN
*I inst_106:ZN O
*I TAUGATE_2:A I
*CAP
1 inst_106:ZN 0.2110
2 TAUNET_2:1 0.3070
3 TAUNET_2:2 0.3583
4 TAUNET_2:3 0.1395
5 TAUNET_2:4 0.0646
6 TAUNET_2:5 0.0794
7 TAUGATE_2:A 0.2161
*RES
2 inst_106:ZN TAUNET_2:1 0.1614
3 TAUNET_2:1 TAUNET_2:2 0.3312
4 TAUNET_2:2 TAUNET_2:3 0.3755
5 TAUNET_2:3 TAUNET_2:4 0.4644
6 TAUNET_2:4 TAUNET_2:5 0.4559
7 TAUNET_2:5 TAUGATE_2:A 0.4050
*END

*D_NET net_38 1.9117
*CONN
*I TAUGATE_4:Z O
*I inst_132:A I
*I inst_85:A1 I
*CAP
1 TAUGATE_4:Z 0.1670
2 net_38:1 0.2440
3 net_38:2 0.0332
4 inst_132:A 0.0406
5 net_38:3 0.3706
6 net_38:4 0.0740
7 net_38:5 0.4871
8 inst_85:A1 0.4951
*RES
2 TAUGATE_4:Z net_38:1 0.2732
3 net_38:1 net_38:2 0.0073
4 net_38:2 inst_132:A 0.1308
5 net_38:1 net_38:3 0.4125
6 net_38:3 net_38:4 0.0565
7 net_38:4 net_38:5 0.1285
8 net_38:5 inst_85:A1 0.0292
*END

*D_NET TAUNET_3 2.3577
*CONN
*I inst_18:ZN O
*I TAUGATE_3:A I
*CAP
1 inst_18:ZN 0.4507
2 TAUNET_3:1 0.3995
3 TAUNET_3:2 0.3845
4 TAUNET_3:3 0.4708
5 TAUNET_3:4 0.3056
6 TAUGATE_3:A 0.3464
*RES
2 inst_18:ZN TAUNET_3:1 0.0305
3 TAUNET_3:1 TAUNET_3:2 0.2383
4 TAUNET_3:2 TAUNET_3:3 0.4020
5 TAUNET_3:3 TAUNET_3:4 0.2529
6 TAUNET_3:4 TAUGATE_3:A 0.2665
*END

*D_NET net_62 2.6744
*CONN
*I TAUGATE_3:Z O
*I inst_24:A4 I
*I inst_151:A4 I
*I inst_71:A2 I
*CAP
1 TAUGATE_3:Z 0.1977
2 net_62:1 0.3276
3 inst_71:A2 0.3833
4 net_62:2 0.2805
5 net_62:3 0.1322
6 inst_151:A4 0.1905
7 net_62:4 0.2211
8 net_62:5 0.1955
9 net_62:6 0.1868
10 net_62:7 0.4889
11 inst_24:A4 0.0703
*RES
2 TAUGATE_3:Z net_62:1 0.3292
3 net_62:1 inst_71:A2 0.0716
4 net_62:1 net_62:2 0.4017
5 net_62:2 net_62:3 0.4680
6 net_62:3 inst_151:A4 0.2976
7 net_62:2 net_62:4 0.3298
8 net_62:4 net_62:5 0.4131
9 net_62:5 net_62:6 0.3310
10 net_62:6 net_62:7 0.2621
11 net_62:7 inst_24:A4 0.4792
*END

*D_NET net_26 4.2111
*CONN
*I TAUGATE_2:Z O
*I inst_1:A2 I
*I inst_30:A3 I
*I inst_28:A1 I
*CAP
1 TAUGATE_2:Z 0.0717
2 net_26:1 0.4035
3 net_26:2 0.0219
4 net_26:3 0.0830
5 net_26:4 0.4539
6 inst_30:A3 0.1250
7 net_26:5 0.3498
8 net_26:6 0.4055
9 net_26:7 0.4519
10 net_26:8 0.4658
11 net_26:9 0.3690
12 inst_1:A2 0.4019
13 net_26:10 0.4734
14 net_26:11 0.0376
15 inst_28:A1 0.0972
*RES
2 TAUGATE_2:Z net_26:1 0.3196
3 net_26:1 net_26:2 0.4976
4 net_26:2 net_26:3 0.3591
5 net_26:3 net_26:4 0.2780
6 net_26:4 inst_30:A3 0.2022
7 net_26:1 net_26:5 0.0632
8 net_26:5 net_26:6 0.2503
9 net_26:6 net_26:7 0.4700
10 net_26:7 net_26:8 0.3789
11 net_26:8 net_26:9 0.3545
12 net_26:9 inst_1:A2 0.1033
13 net_26:9 net_26:10 0.3594
14 net_26:10 net_26:11 0.0525
15 net_26:11 inst_28:A1 0.3248
*END

