*SPEF "IEEE 1481-1998"
*DESIGN "s386"
*DATE "Tue Nov 25 16:55:07 2014"
*VENDOR "TAU 2015 Contest"
*PROGRAM "Benchmark Parasitic Generator"
*VERSION "0.0"
*DESIGN_FLOW "NETLIST_TYPE_VERILOG"
*DIVIDER /
*DELIMITER :
*BUS_DELIMITER [ ]
*T_UNIT 1 PS
*C_UNIT 1 FF
*R_UNIT 1 KOHM
*L_UNIT 1 UH

*D_NET net_166 0.4481
*CONN
*I inst_173:Z O
*I inst_174:A I
*CAP
1 inst_173:Z 0.0154
2 net_166:1 0.1555
3 net_166:2 0.2440
4 inst_174:A 0.0332
*RES
2 inst_173:Z net_166:1 0.0406
3 net_166:1 net_166:2 0.2732
4 net_166:2 inst_174:A 0.0073
*END

*D_NET net_107 0.2704
*CONN
*I inst_25:ZN O
*I inst_91:A2 I
*CAP
1 inst_25:ZN 0.0166
2 inst_91:A2 0.0166
3 net_107:1 0.0572
4 net_107:2 0.0610
5 net_107:3 0.0314
6 net_107:4 0.0314
7 net_107:5 0.0280
8 net_107:6 0.0280
*RES
2 inst_91:A2 net_107:6 0.0050
3 net_107:1 inst_25:ZN 0.0050
4 net_107:2 net_107:1 0.0060
5 net_107:3 net_107:2 0.0050
6 net_107:3 net_107:4 0.0014
7 net_107:5 net_107:4 0.0050
8 net_107:6 net_107:5 0.0015
*END

*D_NET net_47 0.1748
*CONN
*I inst_69:ZN O
*I inst_151:A3 I
*CAP
1 inst_69:ZN 0.0166
2 inst_151:A3 0.0166
3 net_47:1 0.0161
4 net_47:2 0.0161
5 net_47:3 0.0217
6 net_47:4 0.0217
7 net_47:5 0.0331
8 net_47:6 0.0331
*RES
2 inst_151:A3 net_47:6 0.0050
3 net_47:1 inst_69:ZN 0.0050
4 net_47:2 net_47:1 0.0010
5 net_47:3 net_47:2 0.0050
6 net_47:4 net_47:3 0.0014
7 net_47:5 net_47:4 0.0050
8 net_47:6 net_47:5 0.0025
*END

*D_NET net_159 0.9086
*CONN
*I inst_166:Z O
*I inst_149:CK I
*CAP
1 inst_166:Z 0.1977
2 net_159:1 0.3276
3 inst_149:CK 0.3833
*RES
2 inst_166:Z net_159:1 0.3292
3 net_159:1 inst_149:CK 0.0716
*END

*D_NET v13_D_7 1.1162
*CONN
*I inst_10:ZN O
*P v13_D_7 O
*CAP
1 v13_D_7 0.0130
2 inst_10:ZN 0.0317
3 v13_D_7:1 0.0400
4 v13_D_7:2 0.0321
5 v13_D_7:3 0.0321
6 v13_D_7:4 0.4246
7 v13_D_7:5 0.4246
8 v13_D_7:6 0.0387
9 v13_D_7:7 0.0387
10 v13_D_7:8 0.0100
11 v13_D_7:9 0.0100
12 v13_D_7:10 0.0206
*RES
2 inst_10:ZN v13_D_7:1 0.0041
3 v13_D_7:2 v13_D_7:1 0.0050
4 v13_D_7:2 v13_D_7:3 0.0020
5 v13_D_7:4 v13_D_7:3 0.0050
6 v13_D_7:4 v13_D_7:5 0.0431
7 v13_D_7:6 v13_D_7:5 0.0050
8 v13_D_7:6 v13_D_7:7 0.0010
9 v13_D_7:8 v13_D_7:7 0.0050
10 v13_D_7:8 v13_D_7:9 0.0010
11 v13_D_7:10 v13_D_7 0.0010
12 v13_D_7:10 v13_D_7:9 0.0050
*END

*D_NET net_61 0.1334
*CONN
*I inst_77:ZN O
*I inst_85:A2 I
*CAP
1 inst_77:ZN 0.0166
2 inst_85:A2 0.0166
3 net_61:1 0.0337
4 net_61:2 0.0359
5 net_61:3 0.0145
6 net_61:4 0.0161
*RES
2 inst_85:A2 net_61:4 0.0050
3 net_61:1 inst_77:ZN 0.0050
4 net_61:1 net_61:2 0.0020
5 net_61:3 net_61:2 0.0010
6 net_61:3 net_61:4 0.0010
*END

*D_NET net_137 0.1777
*CONN
*I inst_97:ZN O
*I inst_137:A I
*I inst_23:A1 I
*CAP
1 inst_97:ZN 0.0237
2 inst_137:A 0.0166
3 inst_23:A1 0.0166
4 net_137:1 0.0163
5 net_137:2 0.0163
6 net_137:3 0.0154
7 net_137:4 0.0364
8 net_137:5 0.0364
*RES
2 inst_97:ZN net_137:5 0.0050
3 inst_97:ZN net_137:3 0.0010
4 net_137:1 inst_137:A 0.0050
5 net_137:1 net_137:2 0.0010
6 net_137:3 net_137:2 0.0050
7 net_137:4 inst_23:A1 0.0050
8 net_137:5 net_137:4 0.0025
*END

*D_NET net_132 0.4699
*CONN
*I inst_138:ZN O
*I inst_20:A1 I
*I inst_7:A1 I
*CAP
1 inst_138:ZN 0.0166
2 inst_20:A1 0.0166
3 inst_7:A1 0.0166
4 net_132:1 0.0152
5 net_132:2 0.0181
6 net_132:3 0.0181
7 net_132:4 0.0412
8 net_132:5 0.0450
9 net_132:6 0.0890
10 net_132:7 0.0890
11 net_132:8 0.0523
12 net_132:9 0.0523
*RES
2 inst_138:ZN net_132:4 0.0050
3 net_132:1 inst_20:A1 0.0050
4 net_132:2 net_132:1 0.0050
5 net_132:2 net_132:3 0.0014
6 net_132:4 net_132:3 0.0050
7 net_132:5 net_132:4 0.0040
8 net_132:5 net_132:6 0.0050
9 net_132:6 net_132:7 0.0102
10 net_132:7 net_132:8 0.0050
11 net_132:9 inst_7:A1 0.0050
12 net_132:9 net_132:8 0.0045
*END

*D_NET net_54 0.3262
*CONN
*I inst_17:ZN O
*I inst_72:A1 I
*I inst_35:A2 I
*CAP
1 inst_17:ZN 0.0154
2 inst_72:A1 0.0080
3 inst_35:A2 0.0072
4 net_54:1 0.0155
5 net_54:2 0.0414
6 net_54:3 0.0452
7 net_54:4 0.0236
8 net_54:5 0.0234
9 net_54:6 0.0237
10 net_54:7 0.0152
11 net_54:8 0.0539
12 net_54:9 0.0539
*RES
2 inst_17:ZN net_54:6 0.0021
3 inst_72:A1 net_54:5 0.0010
4 net_54:1 inst_35:A2 0.0010
5 net_54:2 net_54:1 0.0050
6 net_54:3 net_54:2 0.0045
7 net_54:3 net_54:4 0.0050
8 net_54:5 net_54:4 0.0021
9 net_54:7 net_54:6 0.0050
10 net_54:8 net_54:7 0.0050
11 net_54:8 net_54:9 0.0027
12 net_54:9 net_54:2 0.0050
*END

*D_NET net_105 0.1755
*CONN
*I inst_64:ZN O
*I inst_37:A1 I
*CAP
1 inst_64:ZN 0.0166
2 inst_37:A1 0.0166
3 net_105:1 0.0152
4 net_105:2 0.0559
5 net_105:3 0.0559
6 net_105:4 0.0152
*RES
2 inst_37:A1 net_105:4 0.0050
3 net_105:1 inst_64:ZN 0.0050
4 net_105:2 net_105:1 0.0050
5 net_105:2 net_105:3 0.0027
6 net_105:4 net_105:3 0.0050
*END

*D_NET net_62 0.7198
*CONN
*I inst_18:ZN O
*I inst_71:A2 I
*I inst_24:A4 I
*I inst_151:A4 I
*CAP
1 inst_18:ZN 0.0166
2 inst_71:A2 0.0166
3 inst_24:A4 0.0310
4 inst_151:A4 0.0166
5 net_62:1 0.1247
6 net_62:2 0.1285
7 net_62:3 0.0227
8 net_62:4 0.0152
9 net_62:5 0.0929
10 net_62:6 0.0929
11 net_62:7 0.0152
12 net_62:8 0.0178
13 net_62:9 0.0178
14 net_62:10 0.0557
15 net_62:11 0.0557
*RES
2 net_62:1 inst_71:A2 0.0050
3 net_62:1 net_62:2 0.0125
4 net_62:2 inst_24:A4 0.0050
5 net_62:3 inst_24:A4 0.0021
6 net_62:3 net_62:4 0.0050
7 net_62:4 net_62:5 0.0050
8 net_62:6 net_62:5 0.0047
9 net_62:6 net_62:7 0.0050
10 net_62:7 inst_18:ZN 0.0050
11 net_62:8 inst_151:A4 0.0050
12 net_62:8 net_62:9 0.0010
13 net_62:10 net_62:9 0.0050
14 net_62:11 net_62:1 0.0050
15 net_62:11 net_62:10 0.0054
*END

*D_NET net_6 1.3976
*CONN
*I inst_153:ZN O
*I inst_113:A I
*I inst_45:A1 I
*I inst_29:A3 I
*CAP
1 inst_153:ZN 0.0166
2 inst_113:A 0.0166
3 inst_45:A1 0.0166
4 inst_29:A3 0.0166
5 net_6:1 0.0409
6 net_6:2 0.0409
7 net_6:3 0.0407
8 net_6:4 0.1564
9 net_6:5 0.1233
10 net_6:6 0.0771
11 net_6:7 0.0771
12 net_6:8 0.1134
13 net_6:9 0.1131
14 net_6:10 0.0494
15 net_6:11 0.0528
16 net_6:12 0.1722
17 net_6:13 0.1722
18 net_6:14 0.0121
19 net_6:15 0.0121
20 net_6:16 0.0152
21 net_6:17 0.0152
22 net_6:18 0.0181
23 net_6:19 0.0181
24 net_6:20 0.0107
*RES
2 net_6:1 inst_113:A 0.0050
3 net_6:1 net_6:2 0.0050
4 net_6:3 net_6:2 0.0050
5 net_6:4 net_6:3 0.0034
6 net_6:4 net_6:17 0.0050
7 net_6:5 net_6:4 0.0176
8 net_6:6 net_6:5 0.0050
9 net_6:6 net_6:7 0.0034
10 net_6:8 net_6:7 0.0050
11 net_6:9 net_6:8 0.0088
12 net_6:10 net_6:9 0.0010
13 net_6:11 net_6:10 0.0072
14 net_6:11 net_6:12 0.0050
15 net_6:13 net_6:12 0.0050
16 net_6:13 net_6:14 0.0050
17 net_6:15 net_6:14 0.0010
18 net_6:15 net_6:16 0.0050
19 net_6:16 inst_29:A3 0.0050
20 net_6:17 inst_45:A1 0.0050
21 net_6:18 inst_153:ZN 0.0050
22 net_6:19 net_6:18 0.0010
23 net_6:20 net_6:11 0.0010
24 net_6:20 net_6:19 0.0050
*END

*D_NET net_129 0.8371
*CONN
*I inst_11:ZN O
*I inst_30:A2 I
*I inst_150:A4 I
*I inst_70:A2 I
*CAP
1 inst_11:ZN 0.0166
2 inst_30:A2 0.0166
3 inst_150:A4 0.0166
4 inst_70:A2 0.0166
5 net_129:1 0.0213
6 net_129:2 0.0213
7 net_129:3 0.2207
8 net_129:4 0.0178
9 net_129:5 0.0291
10 net_129:6 0.0432
11 net_129:7 0.0518
12 net_129:8 0.0480
13 net_129:9 0.0178
14 net_129:10 0.0178
15 net_129:11 0.0217
16 net_129:12 0.0229
17 net_129:13 0.0229
18 net_129:14 0.2144
*RES
2 net_129:1 inst_70:A2 0.0050
3 net_129:1 net_129:2 0.0010
4 net_129:3 net_129:2 0.0050
5 net_129:3 net_129:4 0.0010
6 net_129:4 net_129:5 0.0050
7 net_129:5 net_129:6 0.0015
8 net_129:6 net_129:11 0.0020
9 net_129:6 net_129:7 0.0050
10 net_129:7 net_129:8 0.0041
11 net_129:8 net_129:9 0.0050
12 net_129:9 net_129:10 0.0010
13 net_129:10 inst_150:A4 0.0050
14 net_129:11 inst_30:A2 0.0050
15 net_129:12 inst_11:ZN 0.0050
16 net_129:13 net_129:12 0.0010
17 net_129:14 net_129:3 0.0183
18 net_129:14 net_129:13 0.0050
*END

*D_NET net_119 0.2178
*CONN
*I inst_8:ZN O
*I inst_9:A1 I
*CAP
1 inst_8:ZN 0.0166
2 inst_9:A1 0.0166
3 net_119:1 0.0381
4 net_119:2 0.0404
5 net_119:3 0.0542
6 net_119:4 0.0519
*RES
2 inst_9:A1 net_119:4 0.0050
3 net_119:1 inst_8:ZN 0.0050
4 net_119:1 net_119:2 0.0035
5 net_119:2 net_119:3 0.0010
6 net_119:3 net_119:4 0.0050
*END

*D_NET net_98 0.1261
*CONN
*I inst_136:ZN O
*I inst_149:D I
*CAP
1 inst_136:ZN 0.0166
2 inst_149:D 0.0166
3 net_98:1 0.0464
4 net_98:2 0.0464
*RES
2 inst_136:ZN net_98:2 0.0050
3 net_98:1 inst_149:D 0.0050
4 net_98:2 net_98:1 0.0035
*END

*D_NET net_23 0.1593
*CONN
*I inst_128:ZN O
*I inst_19:A1 I
*CAP
1 inst_128:ZN 0.0166
2 inst_19:A1 0.0076
3 net_23:1 0.0159
4 net_23:2 0.0202
5 net_23:3 0.0202
6 net_23:4 0.0318
7 net_23:5 0.0318
8 net_23:6 0.0152
*RES
2 inst_128:ZN net_23:6 0.0050
3 inst_19:A1 net_23:1 0.0010
4 net_23:2 net_23:1 0.0050
5 net_23:3 net_23:2 0.0015
6 net_23:4 net_23:3 0.0050
7 net_23:4 net_23:5 0.0027
8 net_23:6 net_23:5 0.0050
*END

*D_NET net_117 0.5730
*CONN
*I inst_30:ZN O
*I inst_139:A I
*I inst_79:A1 I
*CAP
1 inst_139:A 0.0166
2 inst_30:ZN 0.0166
3 inst_79:A1 0.0166
4 net_117:1 0.0378
5 net_117:2 0.1040
6 net_117:3 0.0521
7 net_117:4 0.0521
8 net_117:5 0.0263
9 net_117:6 0.0263
10 net_117:7 0.0631
11 net_117:8 0.0631
12 net_117:9 0.0104
13 net_117:10 0.0104
14 net_117:11 0.0776
*RES
2 net_117:1 inst_139:A 0.0050
3 net_117:2 inst_79:A1 0.0050
4 net_117:2 net_117:1 0.0030
5 net_117:3 inst_30:ZN 0.0050
6 net_117:3 net_117:4 0.0055
7 net_117:5 net_117:4 0.0050
8 net_117:6 net_117:5 0.0018
9 net_117:7 net_117:6 0.0050
10 net_117:7 net_117:8 0.0013
11 net_117:9 net_117:8 0.0050
12 net_117:10 net_117:9 0.0010
13 net_117:11 net_117:2 0.0065
14 net_117:11 net_117:10 0.0050
*END

*D_NET net_12 0.5166
*CONN
*I inst_107:ZN O
*I inst_15:A1 I
*I inst_28:A2 I
*CAP
1 inst_107:ZN 0.0166
2 inst_15:A1 0.0166
3 inst_28:A2 0.0143
4 net_12:1 0.0796
5 net_12:2 0.0758
6 net_12:3 0.1088
7 net_12:4 0.0447
8 net_12:5 0.0147
9 net_12:6 0.0147
10 net_12:7 0.0227
11 net_12:8 0.0181
12 net_12:9 0.0181
13 net_12:10 0.0718
*RES
2 net_12:1 inst_15:A1 0.0050
3 net_12:2 net_12:1 0.0045
4 net_12:3 net_12:2 0.0050
5 net_12:3 net_12:4 0.0061
6 net_12:4 net_12:5 0.0050
7 net_12:6 net_12:5 0.0010
8 net_12:6 net_12:7 0.0050
9 net_12:7 inst_28:A2 0.0021
10 net_12:8 inst_107:ZN 0.0050
11 net_12:8 net_12:9 0.0010
12 net_12:10 net_12:3 0.0041
13 net_12:10 net_12:9 0.0050
*END

*D_NET net_151 2.6799
*CONN
*I inst_158:Z O
*I inst_147:CK I
*I inst_159:A I
*CAP
1 inst_158:Z 0.0832
2 net_151:1 0.3736
3 inst_147:CK 0.0395
4 net_151:2 0.3877
5 net_151:3 0.3882
6 net_151:4 0.4950
7 net_151:5 0.0413
8 net_151:6 0.4651
9 inst_159:A 0.4065
*RES
2 inst_158:Z net_151:1 0.3644
3 net_151:1 inst_147:CK 0.0829
4 net_151:1 net_151:2 0.3164
5 net_151:2 net_151:3 0.3513
6 net_151:3 net_151:4 0.1165
7 net_151:4 net_151:5 0.0986
8 net_151:5 net_151:6 0.2243
9 net_151:6 inst_159:A 0.1286
*END

*D_NET net_74 1.7288
*CONN
*I inst_104:ZN O
*I inst_33:A2 I
*I inst_24:A3 I
*I inst_7:A2 I
*I inst_80:A1 I
*I inst_4:A3 I
*I inst_39:A2 I
*CAP
1 inst_104:ZN 0.0166
2 inst_33:A2 0.0166
3 inst_24:A3 0.0166
4 inst_7:A2 0.0166
5 inst_80:A1 0.0166
6 inst_4:A3 0.0166
7 inst_39:A2 0.0227
8 net_74:1 0.0167
9 net_74:2 0.0167
10 net_74:3 0.1311
11 net_74:4 0.1311
12 net_74:5 0.0587
13 net_74:6 0.0625
14 net_74:7 0.0227
15 net_74:8 0.0152
16 net_74:9 0.0444
17 net_74:10 0.0588
18 net_74:11 0.2041
19 net_74:12 0.2734
20 net_74:13 0.0133
21 net_74:14 0.0133
22 net_74:15 0.0152
23 net_74:16 0.0152
24 net_74:17 0.0282
25 net_74:18 0.0504
26 net_74:19 0.0693
27 net_74:20 0.0152
28 net_74:21 0.0171
29 net_74:22 0.0171
30 net_74:23 0.1248
31 net_74:24 0.1248
32 net_74:25 0.0298
33 net_74:26 0.0152
34 net_74:27 0.0220
*RES
2 net_74:1 inst_7:A2 0.0050
3 net_74:2 net_74:1 0.0010
4 net_74:3 net_74:2 0.0050
5 net_74:3 net_74:4 0.0088
6 net_74:5 inst_4:A3 0.0050
7 net_74:5 net_74:4 0.0050
8 net_74:6 net_74:5 0.0050
9 net_74:7 inst_39:A2 0.0021
10 net_74:7 net_74:6 0.0050
11 net_74:8 inst_39:A2 0.0050
12 net_74:9 net_74:8 0.0050
13 net_74:9 net_74:10 0.0035
14 net_74:10 net_74:27 0.0026
15 net_74:10 net_74:11 0.0050
16 net_74:11 net_74:12 0.0063
17 net_74:12 net_74:19 0.0021
18 net_74:12 net_74:13 0.0050
19 net_74:13 net_74:14 0.0010
20 net_74:14 net_74:15 0.0050
21 net_74:15 inst_24:A3 0.0050
22 net_74:16 inst_33:A2 0.0050
23 net_74:17 net_74:16 0.0050
24 net_74:17 net_74:18 0.0022
25 net_74:18 net_74:25 0.0020
26 net_74:19 net_74:18 0.0050
27 net_74:20 inst_80:A1 0.0050
28 net_74:21 net_74:20 0.0050
29 net_74:22 net_74:21 0.0010
30 net_74:23 net_74:22 0.0050
31 net_74:24 net_74:23 0.0048
32 net_74:25 net_74:24 0.0050
33 net_74:26 inst_104:ZN 0.0050
34 net_74:27 net_74:26 0.0050
*END

*D_NET v13_D_12 1.0521
*CONN
*I inst_5:ZN O
*P v13_D_12 O
*CAP
1 v13_D_12 0.0012
2 inst_5:ZN 0.0072
3 v13_D_12:1 0.0196
4 v13_D_12:2 0.2774
5 v13_D_12:3 0.2812
6 v13_D_12:4 0.2265
7 v13_D_12:5 0.2265
8 v13_D_12:6 0.0126
*RES
2 v13_D_12 v13_D_12:6 0.0010
3 v13_D_12:1 inst_5:ZN 0.0010
4 v13_D_12:2 v13_D_12:1 0.0050
5 v13_D_12:3 v13_D_12:2 0.0195
6 v13_D_12:4 v13_D_12:3 0.0050
7 v13_D_12:5 v13_D_12:4 0.0323
8 v13_D_12:6 v13_D_12:5 0.0050
*END

*D_NET net_53 0.4670
*CONN
*I inst_16:ZN O
*I inst_72:A2 I
*I inst_77:A2 I
*CAP
1 inst_16:ZN 0.0162
2 inst_72:A2 0.0166
3 inst_77:A2 0.0166
4 net_53:1 0.0441
5 net_53:2 0.0171
6 net_53:3 0.0324
7 net_53:4 0.0324
8 net_53:5 0.0850
9 net_53:6 0.0850
10 net_53:7 0.0217
11 net_53:8 0.0255
12 net_53:9 0.0152
13 net_53:10 0.0245
14 net_53:11 0.0346
*RES
2 net_53:1 inst_72:A2 0.0050
3 net_53:1 net_53:2 0.0010
4 net_53:2 net_53:3 0.0050
5 net_53:3 net_53:4 0.0021
6 net_53:4 net_53:5 0.0050
7 net_53:5 net_53:6 0.0027
8 net_53:6 net_53:7 0.0050
9 net_53:7 net_53:8 0.0013
10 net_53:8 net_53:9 0.0050
11 net_53:9 inst_77:A2 0.0050
12 net_53:10 inst_16:ZN 0.0030
13 net_53:11 net_53:1 0.0035
14 net_53:11 net_53:10 0.0050
*END

*D_NET net_93 0.1995
*CONN
*I inst_43:ZN O
*I inst_135:A I
*CAP
1 inst_43:ZN 0.0166
2 inst_135:A 0.0166
3 net_93:1 0.0165
4 net_93:2 0.0165
5 net_93:3 0.0498
6 net_93:4 0.0498
7 net_93:5 0.0169
8 net_93:6 0.0169
*RES
2 inst_43:ZN net_93:6 0.0050
3 net_93:1 inst_135:A 0.0050
4 net_93:1 net_93:2 0.0010
5 net_93:3 net_93:2 0.0050
6 net_93:4 net_93:3 0.0027
7 net_93:5 net_93:4 0.0050
8 net_93:6 net_93:5 0.0010
*END

*D_NET net_168 2.3457
*CONN
*I inst_175:Z O
*I inst_176:A I
*CAP
1 inst_175:Z 0.4602
2 net_168:1 0.2009
3 net_168:2 0.3114
4 net_168:3 0.3090
5 net_168:4 0.3972
6 net_168:5 0.4228
7 inst_176:A 0.2443
*RES
2 inst_175:Z net_168:1 0.2458
3 net_168:1 net_168:2 0.3734
4 net_168:2 net_168:3 0.1567
5 net_168:3 net_168:4 0.1247
6 net_168:4 net_168:5 0.2439
7 net_168:5 inst_176:A 0.2588
*END

*D_NET net_135 0.3676
*CONN
*I inst_98:ZN O
*I inst_99:A I
*I inst_32:A2 I
*CAP
1 inst_98:ZN 0.0332
2 inst_99:A 0.0166
3 inst_32:A2 0.0166
4 net_135:1 0.0564
5 net_135:2 0.0549
6 net_135:3 0.0163
7 net_135:4 0.0178
8 net_135:5 0.0343
9 net_135:6 0.0366
10 net_135:7 0.0436
11 net_135:8 0.0413
*RES
2 inst_98:ZN net_135:4 0.0050
3 inst_32:A2 net_135:8 0.0050
4 net_135:1 inst_99:A 0.0050
5 net_135:1 net_135:2 0.0040
6 net_135:2 net_135:3 0.0010
7 net_135:3 net_135:4 0.0010
8 net_135:5 inst_98:ZN 0.0050
9 net_135:5 net_135:6 0.0020
10 net_135:7 net_135:6 0.0010
11 net_135:7 net_135:8 0.0025
*END

*D_NET net_130 0.2356
*CONN
*I inst_38:ZN O
*I inst_88:A1 I
*CAP
1 inst_38:ZN 0.0166
2 inst_88:A1 0.0166
3 net_130:1 0.0414
4 net_130:2 0.0414
5 net_130:3 0.0265
6 net_130:4 0.0265
7 net_130:5 0.0351
8 net_130:6 0.0313
*RES
2 inst_88:A1 net_130:6 0.0050
3 net_130:1 inst_38:ZN 0.0050
4 net_130:1 net_130:2 0.0050
5 net_130:3 net_130:2 0.0050
6 net_130:4 net_130:3 0.0021
7 net_130:5 net_130:4 0.0050
8 net_130:5 net_130:6 0.0025
*END

*D_NET net_147 2.9563
*CONN
*I inst_148:QN O
*I inst_153:A1 I
*I inst_13:A1 I
*I inst_23:A2 I
*I inst_2:A2 I
*I inst_0:A1 I
*I inst_126:A I
*I inst_28:A3 I
*I inst_17:A1 I
*I inst_30:A1 I
*I inst_32:A1 I
*I inst_37:A2 I
*CAP
1 inst_153:A1 0.0166
2 inst_13:A1 0.0166
3 inst_23:A2 0.0206
4 inst_2:A2 0.0166
5 inst_0:A1 0.0201
6 inst_126:A 0.0166
7 inst_28:A3 0.0166
8 inst_17:A1 0.0166
9 inst_30:A1 0.0166
10 inst_32:A1 0.0166
11 inst_37:A2 0.0223
12 inst_148:QN 0.0166
13 net_147:1 0.0207
14 net_147:2 0.0344
15 net_147:3 0.0214
16 net_147:4 0.0510
17 net_147:5 0.1716
18 net_147:6 0.1281
19 net_147:7 0.0205
20 net_147:8 0.0289
21 net_147:9 0.1253
22 net_147:10 0.1796
23 net_147:11 0.0627
24 net_147:12 0.0587
25 net_147:13 0.0461
26 net_147:14 0.0440
27 net_147:15 0.0440
28 net_147:16 0.0160
29 net_147:17 0.0886
30 net_147:18 0.0886
31 net_147:19 0.1098
32 net_147:20 0.0874
33 net_147:21 0.0228
34 net_147:22 0.0228
35 net_147:23 0.0306
36 net_147:24 0.0170
37 net_147:25 0.0170
38 net_147:26 0.0455
39 net_147:27 0.0581
40 net_147:28 0.0163
41 net_147:29 0.0186
42 net_147:30 0.0386
43 net_147:31 0.0364
44 net_147:32 0.0164
45 net_147:33 0.0464
46 net_147:34 0.0464
47 net_147:35 0.0225
48 net_147:36 0.0225
49 net_147:37 0.0178
50 net_147:38 0.0446
51 net_147:39 0.0420
52 net_147:40 0.0684
53 net_147:41 0.0684
54 net_147:42 0.0164
55 net_147:43 0.0164
56 net_147:44 0.0179
57 net_147:45 0.0179
58 net_147:46 0.0249
59 net_147:47 0.0249
60 net_147:48 0.0423
61 net_147:49 0.0461
62 net_147:50 0.1144
63 net_147:51 0.0371
64 net_147:52 0.0371
65 net_147:53 0.0920
66 net_147:54 0.0547
67 net_147:55 0.0547
*RES
2 inst_23:A2 net_147:32 0.0010
3 inst_23:A2 net_147:31 0.0050
4 inst_0:A1 net_147:17 0.0050
5 inst_37:A2 net_147:23 0.0031
6 net_147:1 inst_126:A 0.0050
7 net_147:1 net_147:2 0.0010
8 net_147:2 net_147:3 0.0010
9 net_147:2 net_147:47 0.0050
10 net_147:4 net_147:3 0.0050
11 net_147:5 net_147:4 0.0041
12 net_147:6 net_147:5 0.0121
13 net_147:6 net_147:7 0.0050
14 net_147:8 net_147:7 0.0010
15 net_147:9 net_147:8 0.0010
16 net_147:10 net_147:9 0.0046
17 net_147:10 net_147:41 0.0050
18 net_147:11 net_147:10 0.0027
19 net_147:11 net_147:12 0.0050
20 net_147:12 net_147:13 0.0036
21 net_147:13 net_147:14 0.0050
22 net_147:15 net_147:14 0.0035
23 net_147:15 net_147:16 0.0050
24 net_147:16 inst_0:A1 0.0010
25 net_147:18 net_147:17 0.0095
26 net_147:18 net_147:19 0.0050
27 net_147:19 net_147:50 0.0020
28 net_147:20 net_147:19 0.0068
29 net_147:20 net_147:21 0.0050
30 net_147:22 net_147:21 0.0020
31 net_147:22 net_147:23 0.0050
32 net_147:24 inst_13:A1 0.0050
33 net_147:24 net_147:25 0.0010
34 net_147:26 net_147:25 0.0050
35 net_147:26 net_147:27 0.0020
36 net_147:27 net_147:12 0.0012
37 net_147:27 net_147:43 0.0050
38 net_147:28 inst_153:A1 0.0050
39 net_147:29 net_147:28 0.0010
40 net_147:29 net_147:30 0.0010
41 net_147:31 net_147:30 0.0050
42 net_147:33 net_147:32 0.0050
43 net_147:34 net_147:33 0.0040
44 net_147:35 net_147:34 0.0050
45 net_147:35 net_147:36 0.0014
46 net_147:37 net_147:36 0.0050
47 net_147:38 inst_32:A1 0.0050
48 net_147:38 net_147:37 0.0010
49 net_147:39 net_147:38 0.0035
50 net_147:40 net_147:39 0.0050
51 net_147:40 net_147:41 0.0066
52 net_147:42 inst_2:A2 0.0050
53 net_147:43 net_147:42 0.0010
54 net_147:44 inst_17:A1 0.0050
55 net_147:44 net_147:45 0.0010
56 net_147:46 net_147:45 0.0050
57 net_147:47 net_147:46 0.0014
58 net_147:48 inst_28:A3 0.0050
59 net_147:49 net_147:48 0.0025
60 net_147:50 net_147:49 0.0050
61 net_147:50 net_147:53 0.0068
62 net_147:51 inst_30:A1 0.0050
63 net_147:52 net_147:51 0.0025
64 net_147:53 net_147:52 0.0050
65 net_147:54 inst_148:QN 0.0050
66 net_147:55 net_147:5 0.0050
67 net_147:55 net_147:54 0.0060
*END

*D_NET net_127 0.1245
*CONN
*I inst_23:ZN O
*I inst_63:A1 I
*CAP
1 inst_23:ZN 0.0166
2 inst_63:A1 0.0166
3 net_127:1 0.0152
4 net_127:2 0.0304
5 net_127:3 0.0304
6 net_127:4 0.0152
*RES
2 inst_63:A1 net_127:4 0.0050
3 net_127:1 inst_23:ZN 0.0050
4 net_127:2 net_127:1 0.0050
5 net_127:2 net_127:3 0.0041
6 net_127:4 net_127:3 0.0050
*END

*D_NET net_14 0.5618
*CONN
*I inst_114:ZN O
*I inst_117:A I
*I inst_119:A I
*I inst_121:A I
*I inst_19:A2 I
*CAP
1 inst_114:ZN 0.0419
2 inst_117:A 0.0143
3 inst_119:A 0.0166
4 inst_121:A 0.0166
5 inst_19:A2 0.0076
6 net_14:1 0.0204
7 net_14:2 0.0204
8 net_14:3 0.0246
9 net_14:4 0.0235
10 net_14:5 0.0152
11 net_14:6 0.0378
12 net_14:7 0.0378
13 net_14:8 0.0152
14 net_14:9 0.0159
15 net_14:10 0.0152
16 net_14:11 0.0251
17 net_14:12 0.0186
18 net_14:13 0.0602
19 net_14:14 0.0602
20 net_14:15 0.0187
21 net_14:16 0.0227
22 net_14:17 0.0152
23 net_14:18 0.0179
*RES
2 inst_114:ZN net_14:15 0.0010
3 inst_114:ZN net_14:4 0.0021
4 net_14:1 inst_121:A 0.0050
5 net_14:2 net_14:1 0.0010
6 net_14:3 inst_114:ZN 0.0031
7 net_14:3 net_14:2 0.0050
8 net_14:4 net_14:5 0.0050
9 net_14:5 net_14:6 0.0050
10 net_14:6 net_14:7 0.0027
11 net_14:7 net_14:8 0.0050
12 net_14:8 net_14:9 0.0050
13 net_14:9 inst_19:A2 0.0010
14 net_14:10 inst_119:A 0.0050
15 net_14:11 net_14:10 0.0050
16 net_14:11 net_14:18 0.0014
17 net_14:12 net_14:11 0.0010
18 net_14:12 net_14:13 0.0050
19 net_14:13 net_14:14 0.0040
20 net_14:14 net_14:15 0.0050
21 net_14:16 inst_117:A 0.0021
22 net_14:17 net_14:16 0.0050
23 net_14:18 net_14:17 0.0050
*END

*D_NET net_113 0.2616
*CONN
*I inst_48:ZN O
*I inst_49:A1 I
*CAP
1 inst_48:ZN 0.0215
2 inst_49:A1 0.0166
3 net_113:1 0.0298
4 net_113:2 0.0988
5 net_113:3 0.0949
*RES
2 inst_48:ZN net_113:1 0.0031
3 inst_49:A1 net_113:3 0.0050
4 net_113:2 net_113:1 0.0050
5 net_113:3 net_113:2 0.0065
*END

*D_NET net_26 0.3105
*CONN
*I inst_106:ZN O
*I inst_28:A1 I
*I inst_1:A2 I
*I inst_30:A3 I
*CAP
1 inst_106:ZN 0.0099
2 inst_28:A1 0.0166
3 inst_1:A2 0.0166
4 inst_30:A3 0.0166
5 net_26:1 0.0162
6 net_26:2 0.0162
7 net_26:3 0.0539
8 net_26:4 0.0230
9 net_26:5 0.0152
10 net_26:6 0.0368
11 net_26:7 0.0385
12 net_26:8 0.0182
13 net_26:9 0.0330
*RES
2 inst_106:ZN net_26:8 0.0010
3 net_26:1 inst_1:A2 0.0050
4 net_26:2 net_26:1 0.0010
5 net_26:3 net_26:2 0.0050
6 net_26:3 net_26:4 0.0014
7 net_26:4 net_26:5 0.0050
8 net_26:5 inst_30:A3 0.0050
9 net_26:6 inst_28:A1 0.0050
10 net_26:6 net_26:7 0.0050
11 net_26:7 net_26:3 0.0027
12 net_26:9 net_26:6 0.0020
13 net_26:9 net_26:8 0.0050
*END

*D_NET net_76 0.5076
*CONN
*I inst_71:ZN O
*I inst_4:A1 I
*I inst_5:A1 I
*CAP
1 inst_71:ZN 0.0143
2 inst_4:A1 0.0166
3 inst_5:A1 0.0166
4 net_76:1 0.0152
5 net_76:2 0.1198
6 net_76:3 0.1561
7 net_76:4 0.0436
8 net_76:5 0.0436
9 net_76:6 0.0226
10 net_76:7 0.0152
11 net_76:8 0.0438
*RES
2 net_76:1 inst_5:A1 0.0050
3 net_76:2 net_76:1 0.0050
4 net_76:2 net_76:3 0.0102
5 net_76:3 net_76:8 0.0034
6 net_76:3 net_76:4 0.0050
7 net_76:4 net_76:5 0.0045
8 net_76:5 inst_4:A1 0.0050
9 net_76:6 inst_71:ZN 0.0021
10 net_76:7 net_76:6 0.0050
11 net_76:8 net_76:7 0.0050
*END

*D_NET blif_clk_net 2.6168
*CONN
*P blif_clk_net I
*I inst_156:A I
*I inst_167:A I
*CAP
1 blif_clk_net 0.3840
2 blif_clk_net:1 0.3726
3 blif_clk_net:2 0.2980
4 blif_clk_net:3 0.2454
5 inst_156:A 0.4670
6 blif_clk_net:4 0.0668
7 blif_clk_net:5 0.3699
8 inst_167:A 0.4131
*RES
2 blif_clk_net blif_clk_net:1 0.1921
3 blif_clk_net:1 blif_clk_net:2 0.1376
4 blif_clk_net:2 blif_clk_net:3 0.4443
5 blif_clk_net:3 inst_156:A 0.1288
6 blif_clk_net:3 blif_clk_net:4 0.4004
7 blif_clk_net:4 blif_clk_net:5 0.4814
8 blif_clk_net:5 inst_167:A 0.1341
*END

*D_NET net_101 0.1227
*CONN
*I inst_49:ZN O
*I inst_26:A1 I
*CAP
1 inst_49:ZN 0.0072
2 inst_26:A1 0.0166
3 net_101:1 0.0152
4 net_101:2 0.0265
5 net_101:3 0.0265
6 net_101:4 0.0152
7 net_101:5 0.0155
*RES
2 net_101:1 inst_26:A1 0.0050
3 net_101:2 net_101:1 0.0050
4 net_101:2 net_101:3 0.0034
5 net_101:4 net_101:3 0.0050
6 net_101:5 inst_49:ZN 0.0010
7 net_101:5 net_101:4 0.0050
*END

*D_NET net_32 0.1171
*CONN
*I inst_131:ZN O
*I inst_39:A1 I
*CAP
1 inst_131:ZN 0.0166
2 inst_39:A1 0.0166
3 net_32:1 0.0152
4 net_32:2 0.0267
5 net_32:3 0.0267
6 net_32:4 0.0152
*RES
2 inst_131:ZN net_32:4 0.0050
3 net_32:1 inst_39:A1 0.0050
4 net_32:2 net_32:1 0.0050
5 net_32:2 net_32:3 0.0014
6 net_32:4 net_32:3 0.0050
*END

*D_NET net_111 0.1322
*CONN
*I inst_79:ZN O
*I inst_83:A1 I
*CAP
1 inst_79:ZN 0.0160
2 inst_83:A1 0.0166
3 net_111:1 0.0376
4 net_111:2 0.0376
5 net_111:3 0.0244
*RES
2 inst_79:ZN net_111:3 0.0021
3 net_111:1 inst_83:A1 0.0050
4 net_111:2 net_111:1 0.0025
5 net_111:3 net_111:2 0.0050
*END

*D_NET net_90 0.5040
*CONN
*I inst_27:ZN O
*I inst_145:D I
*CAP
1 inst_27:ZN 0.0166
2 inst_145:D 0.0166
3 net_90:1 0.0506
4 net_90:2 0.0506
5 net_90:3 0.1109
6 net_90:4 0.1109
7 net_90:5 0.0758
8 net_90:6 0.0720
*RES
2 inst_145:D net_90:6 0.0050
3 net_90:1 inst_27:ZN 0.0050
4 net_90:1 net_90:2 0.0040
5 net_90:3 net_90:2 0.0050
6 net_90:4 net_90:3 0.0102
7 net_90:5 net_90:4 0.0050
8 net_90:5 net_90:6 0.0045
*END

*D_NET net_40 0.1358
*CONN
*I inst_142:ZN O
*I inst_6:A2 I
*CAP
1 inst_142:ZN 0.0166
2 inst_6:A2 0.0166
3 net_40:1 0.0152
4 net_40:2 0.0361
5 net_40:3 0.0361
6 net_40:4 0.0152
*RES
2 inst_142:ZN net_40:4 0.0050
3 net_40:1 inst_6:A2 0.0050
4 net_40:2 net_40:1 0.0050
5 net_40:3 net_40:2 0.0020
6 net_40:4 net_40:3 0.0050
*END

*D_NET net_100 0.0725
*CONN
*I inst_92:ZN O
*I inst_93:A2 I
*CAP
1 inst_92:ZN 0.0282
2 inst_93:A2 0.0080
3 net_100:1 0.0362
*RES
2 inst_92:ZN net_100:1 0.0041
3 net_100:1 inst_93:A2 0.0010
*END

*D_NET net_85 1.1244
*CONN
*I inst_47:ZN O
*I inst_133:A I
*I inst_48:A2 I
*I inst_9:A3 I
*I inst_10:A1 I
*CAP
1 inst_47:ZN 0.0332
2 inst_133:A 0.0166
3 inst_48:A2 0.0166
4 inst_9:A3 0.0166
5 inst_10:A1 0.0166
6 net_85:1 0.0152
7 net_85:2 0.1840
8 net_85:3 0.1623
9 net_85:4 0.0152
10 net_85:5 0.0152
11 net_85:6 0.1462
12 net_85:7 0.1462
13 net_85:8 0.0662
14 net_85:9 0.0282
15 net_85:10 0.0198
16 net_85:11 0.0198
17 net_85:12 0.0293
18 net_85:13 0.0152
19 net_85:14 0.0581
20 net_85:15 0.0581
21 net_85:16 0.0456
*RES
2 inst_47:ZN net_85:4 0.0050
3 net_85:1 inst_133:A 0.0050
4 net_85:2 net_85:1 0.0050
5 net_85:2 net_85:12 0.0020
6 net_85:3 net_85:2 0.0102
7 net_85:4 net_85:3 0.0050
8 net_85:5 inst_47:ZN 0.0050
9 net_85:6 net_85:5 0.0050
10 net_85:7 net_85:6 0.0122
11 net_85:8 net_85:7 0.0050
12 net_85:8 net_85:16 0.0030
13 net_85:9 inst_10:A1 0.0050
14 net_85:9 net_85:8 0.0015
15 net_85:10 inst_48:A2 0.0050
16 net_85:10 net_85:11 0.0010
17 net_85:12 net_85:11 0.0050
18 net_85:13 inst_9:A3 0.0050
19 net_85:14 net_85:13 0.0050
20 net_85:14 net_85:15 0.0047
21 net_85:16 net_85:15 0.0050
*END

*D_NET net_69 0.0140
*CONN
*I inst_7:ZN O
*I inst_21:A1 I
*CAP
1 inst_7:ZN 0.0070
2 inst_21:A1 0.0070
*RES
2 inst_21:A1 inst_7:ZN 0.0010
*END

*D_NET net_124 0.0287
*CONN
*I inst_155:ZN O
*I inst_50:A2 I
*CAP
1 inst_155:ZN 0.0143
2 inst_50:A2 0.0143
*RES
2 inst_155:ZN inst_50:A2 0.0021
*END

*D_NET net_161 0.5270
*CONN
*I inst_168:Z O
*I inst_146:CK I
*CAP
1 inst_168:Z 0.1210
2 net_161:1 0.1014
3 net_161:2 0.0283
4 inst_146:CK 0.2763
*RES
2 inst_168:Z net_161:1 0.2945
3 net_161:1 net_161:2 0.3177
4 net_161:2 inst_146:CK 0.2101
*END

*D_NET net_141 0.0808
*CONN
*I inst_59:ZN O
*I inst_73:A1 I
*CAP
1 inst_59:ZN 0.0323
2 inst_73:A1 0.0080
3 net_141:1 0.0404
*RES
2 inst_59:ZN net_141:1 0.0041
3 net_141:1 inst_73:A1 0.0010
*END

*D_NET net_160 1.4286
*CONN
*I inst_167:Z O
*I inst_168:A I
*CAP
1 inst_167:Z 0.2046
2 net_160:1 0.1317
3 net_160:2 0.3617
4 net_160:3 0.0856
5 net_160:4 0.3629
6 inst_168:A 0.2821
*RES
2 inst_167:Z net_160:1 0.3900
3 net_160:1 net_160:2 0.0557
4 net_160:2 net_160:3 0.1253
5 net_160:3 net_160:4 0.2716
6 net_160:4 inst_168:A 0.3735
*END

*D_NET v1 4.4219
*CONN
*P v1 I
*I inst_103:A I
*I inst_53:A1 I
*I inst_155:A1 I
*I inst_68:A1 I
*I inst_151:A2 I
*I inst_49:A2 I
*CAP
1 v1 0.0031
2 inst_103:A 0.0143
3 inst_53:A1 0.0166
4 inst_155:A1 0.0235
5 inst_68:A1 0.0166
6 inst_151:A2 0.0166
7 inst_49:A2 0.0166
8 v1:1 0.0227
9 v1:2 0.0343
10 v1:3 0.0381
11 v1:4 0.0318
12 v1:5 0.1138
13 v1:6 0.2776
14 v1:7 0.1953
15 v1:8 0.0819
16 v1:9 0.0822
17 v1:10 0.2279
18 v1:11 0.1204
19 v1:12 0.0259
20 v1:13 0.0259
21 v1:14 0.0658
22 v1:15 0.0696
23 v1:16 0.1787
24 v1:17 0.0318
25 v1:18 0.3202
26 v1:19 0.0443
27 v1:20 0.0171
28 v1:21 0.0171
29 v1:22 0.2797
30 v1:23 0.2797
31 v1:24 0.0152
32 v1:25 0.0227
33 v1:26 0.0249
34 v1:27 0.0696
35 v1:28 0.0118
36 v1:29 0.0163
37 v1:30 0.6426
38 v1:31 0.6426
39 v1:32 0.2873
*RES
2 v1 v1:28 0.0010
3 inst_103:A v1:1 0.0021
4 v1:2 v1:1 0.0050
5 v1:2 v1:3 0.0030
6 v1:4 v1:3 0.0050
7 v1:4 v1:5 0.0019
8 v1:5 v1:6 0.0063
9 v1:6 v1:7 0.0143
10 v1:6 v1:24 0.0050
11 v1:8 v1:7 0.0010
12 v1:8 v1:9 0.0047
13 v1:9 v1:10 0.0050
14 v1:10 v1:16 0.0105
15 v1:11 v1:10 0.0085
16 v1:11 v1:12 0.0050
17 v1:13 v1:12 0.0021
18 v1:13 v1:14 0.0050
19 v1:15 inst_151:A2 0.0050
20 v1:15 v1:14 0.0050
21 v1:16 inst_53:A1 0.0050
22 v1:16 v1:27 0.0055
23 v1:17 inst_155:A1 0.0031
24 v1:18 v1:17 0.0050
25 v1:18 v1:32 0.0340
26 v1:19 v1:18 0.0040
27 v1:19 v1:20 0.0050
28 v1:20 v1:21 0.0012
29 v1:21 v1:22 0.0050
30 v1:23 v1:5 0.0050
31 v1:23 v1:22 0.0071
32 v1:24 inst_68:A1 0.0050
33 v1:25 inst_49:A2 0.0050
34 v1:26 v1:25 0.0015
35 v1:26 v1:27 0.0010
36 v1:29 v1:28 0.0010
37 v1:30 v1:29 0.0050
38 v1:30 v1:31 0.0461
39 v1:32 v1:31 0.0050
*END

*D_NET net_83 0.3275
*CONN
*I inst_87:ZN O
*I inst_152:A3 I
*CAP
1 inst_87:ZN 0.0166
2 inst_152:A3 0.0166
3 net_83:1 0.0639
4 net_83:2 0.0662
5 net_83:3 0.0832
6 net_83:4 0.0809
*RES
2 inst_152:A3 net_83:4 0.0050
3 net_83:1 inst_87:ZN 0.0050
4 net_83:1 net_83:2 0.0095
5 net_83:2 net_83:3 0.0010
6 net_83:3 net_83:4 0.0090
*END

*D_NET net_115 0.4689
*CONN
*I inst_12:ZN O
*I inst_77:A1 I
*I inst_25:A2 I
*CAP
1 inst_12:ZN 0.0166
2 inst_77:A1 0.0166
3 inst_25:A2 0.0166
4 net_115:1 0.0152
5 net_115:2 0.0404
6 net_115:3 0.0404
7 net_115:4 0.1133
8 net_115:5 0.1133
9 net_115:6 0.0152
10 net_115:7 0.0330
11 net_115:8 0.0330
12 net_115:9 0.0152
*RES
2 net_115:1 inst_77:A1 0.0050
3 net_115:2 net_115:1 0.0050
4 net_115:2 net_115:3 0.0020
5 net_115:3 net_115:4 0.0050
6 net_115:5 net_115:4 0.0034
7 net_115:5 net_115:6 0.0050
8 net_115:6 net_115:7 0.0050
9 net_115:8 inst_25:A2 0.0050
10 net_115:8 net_115:7 0.0020
11 net_115:9 inst_12:ZN 0.0050
12 net_115:9 net_115:3 0.0050
*END

*D_NET v2 2.5102
*CONN
*P v2 I
*I inst_140:A I
*I inst_154:A2 I
*I inst_55:A2 I
*I inst_56:A1 I
*I inst_34:A2 I
*CAP
1 v2 0.0130
2 inst_140:A 0.0166
3 inst_154:A2 0.0166
4 inst_55:A2 0.0166
5 inst_56:A1 0.0166
6 inst_34:A2 0.0166
7 v2:1 0.0220
8 v2:2 0.0220
9 v2:3 0.1368
10 v2:4 0.1018
11 v2:5 0.0371
12 v2:6 0.0397
13 v2:7 0.0178
14 v2:8 0.1480
15 v2:9 0.1480
16 v2:10 0.1136
17 v2:11 0.0179
18 v2:12 0.0152
19 v2:13 0.0137
20 v2:14 0.0441
21 v2:15 0.1109
22 v2:16 0.0152
23 v2:17 0.0121
24 v2:18 0.0121
25 v2:19 0.2395
26 v2:20 0.2395
27 v2:21 0.0426
28 v2:22 0.0206
29 v2:23 0.0200
30 v2:24 0.1720
31 v2:25 0.1710
32 v2:26 0.2215