*SPEF "IEEE 1481-1998"
*DESIGN "c6288"
*DATE "Tue Nov 25 16:54:52 2014"
*VENDOR "TAU 2015 Contest"
*PROGRAM "Benchmark Parasitic Generator"
*VERSION "0.0"
*DESIGN_FLOW "NETLIST_TYPE_VERILOG"
*DIVIDER /
*DELIMITER :
*BUS_DELIMITER [ ]
*T_UNIT 1 PS
*C_UNIT 1 FF
*R_UNIT 1 KOHM
*L_UNIT 1 UH

*D_NET net_1354 0.1468
*CONN
*I inst_1591:ZN O
*I inst_374:B I
*CAP
1 inst_1591:ZN 0.0099
2 inst_374:B 0.0166
3 net_1354:1 0.0511
4 net_1354:2 0.0511
5 net_1354:3 0.0182
*RES
2 inst_1591:ZN net_1354:3 0.0010
3 net_1354:1 inst_374:B 0.0050
4 net_1354:1 net_1354:2 0.0040
5 net_1354:3 net_1354:2 0.0050
*END

*D_NET net_1580 0.2416
*CONN
*I inst_424:ZN O
*I inst_1625:A I
*I inst_433:A I
*CAP
1 inst_424:ZN 0.0143
2 inst_1625:A 0.0166
3 inst_433:A 0.0166
4 net_1580:1 0.0525
5 net_1580:2 0.0470
6 net_1580:3 0.0199
7 net_1580:4 0.0199
8 net_1580:5 0.0152
9 net_1580:6 0.0226
10 net_1580:7 0.0169
*RES
2 inst_424:ZN net_1580:6 0.0021
3 net_1580:1 inst_1625:A 0.0050
4 net_1580:1 net_1580:7 0.0010
5 net_1580:2 net_1580:1 0.0035
6 net_1580:2 net_1580:3 0.0050
7 net_1580:3 net_1580:4 0.0014
8 net_1580:4 net_1580:5 0.0050
9 net_1580:5 inst_433:A 0.0050
10 net_1580:7 net_1580:6 0.0050
*END

*D_NET net_1317 0.2724
*CONN
*I inst_571:ZN O
*I inst_1255:A1 I
*I inst_360:B I
*CAP
1 inst_571:ZN 0.0080
2 inst_1255:A1 0.0166
3 inst_360:B 0.0166
4 net_1317:1 0.0152
5 net_1317:2 0.0270
6 net_1317:3 0.0347
7 net_1317:4 0.0435
8 net_1317:5 0.0435
9 net_1317:6 0.0163
10 net_1317:7 0.0178
11 net_1317:8 0.0178
12 net_1317:9 0.0153
*RES
2 inst_571:ZN net_1317:6 0.0010
3 net_1317:1 inst_360:B 0.0050
4 net_1317:2 net_1317:1 0.0050
5 net_1317:3 net_1317:2 0.0020
6 net_1317:3 net_1317:4 0.0050
7 net_1317:4 net_1317:5 0.0055
8 net_1317:5 inst_1255:A1 0.0050
9 net_1317:7 net_1317:6 0.0050
10 net_1317:8 net_1317:7 0.0010
11 net_1317:9 net_1317:3 0.0010
12 net_1317:9 net_1317:8 0.0050
*END

*D_NET net_1406 0.0287
*CONN
*I inst_1293:ZN O
*I inst_1305:A2 I
*CAP
1 inst_1293:ZN 0.0143
2 inst_1305:A2 0.0143
*RES
2 inst_1293:ZN inst_1305:A2 0.0021
*END

*D_NET net_1308 0.1481
*CONN
*I inst_1253:ZN O
*I inst_1282:A2 I
*CAP
1 inst_1253:ZN 0.0143
2 inst_1282:A2 0.0072
3 net_1308:1 0.0227
4 net_1308:2 0.0152
5 net_1308:3 0.0290
6 net_1308:4 0.0290
7 net_1308:5 0.0152
8 net_1308:6 0.0155
*RES
2 inst_1253:ZN net_1308:1 0.0021
3 net_1308:2 net_1308:1 0.0050
4 net_1308:3 net_1308:2 0.0050
5 net_1308:3 net_1308:4 0.0020
6 net_1308:5 net_1308:4 0.0050
7 net_1308:6 inst_1282:A2 0.0010
8 net_1308:6 net_1308:5 0.0050
*END

*D_NET net_796 0.2487
*CONN
*I inst_1021:ZN O
*I inst_1032:A1 I
*I inst_209:B I
*CAP
1 inst_1021:ZN 0.0166
2 inst_1032:A1 0.0166
3 inst_209:B 0.0166
4 net_796:1 0.0217
5 net_796:2 0.0217
6 net_796:3 0.0449
7 net_796:4 0.0587
8 net_796:5 0.0152
9 net_796:6 0.0152
10 net_796:7 0.0214
*RES
2 net_796:1 inst_1032:A1 0.0050
3 net_796:2 net_796:1 0.0020
4 net_796:3 net_796:2 0.0050
5 net_796:4 net_796:3 0.0041
6 net_796:4 net_796:5 0.0050
7 net_796:5 inst_209:B 0.0050
8 net_796:6 inst_1021:ZN 0.0050
9 net_796:7 net_796:4 0.0014
10 net_796:7 net_796:6 0.0050
*END

*D_NET net_416 0.3345
*CONN
*I inst_861:ZN O
*I inst_875:A1 I
*I inst_106:B I
*CAP
1 inst_861:ZN 0.0366
2 inst_875:A1 0.0166
3 inst_106:B 0.0166
4 net_416:1 0.0586
5 net_416:2 0.0586
6 net_416:3 0.0322
7 net_416:4 0.0199
8 net_416:5 0.0152
9 net_416:6 0.0449
10 net_416:7 0.0152
11 net_416:8 0.0199
*RES
2 inst_861:ZN net_416:6 0.0052
3 net_416:1 inst_875:A1 0.0050
4 net_416:2 net_416:1 0.0045
5 net_416:3 net_416:2 0.0050
6 net_416:3 net_416:4 0.0014
7 net_416:4 net_416:5 0.0050
8 net_416:5 inst_106:B 0.0050
9 net_416:7 net_416:6 0.0050
10 net_416:8 net_416:3 0.0014
11 net_416:8 net_416:7 0.0050
*END

*D_NET net_215 0.0287
*CONN
*I inst_1418:ZN O
*I inst_792:A2 I
*CAP
1 inst_1418:ZN 0.0143
2 inst_792:A2 0.0143
*RES
2 inst_792:A2 inst_1418:ZN 0.0021
*END

*D_NET net_933 0.0430
*CONN
*I inst_1526:ZN O
*I inst_1104:A2 I
*CAP
1 inst_1526:ZN 0.0215
2 inst_1104:A2 0.0215
*RES
2 inst_1526:ZN inst_1104:A2 0.0031
*END

*D_NET net_1382 0.2575
*CONN
*I inst_1596:ZN O
*I inst_379:B I
*CAP
1 inst_1596:ZN 0.0166
2 inst_379:B 0.0166
3 net_1382:1 0.0211
4 net_1382:2 0.0211
5 net_1382:3 0.0525
6 net_1382:4 0.0525
7 net_1382:5 0.0385
8 net_1382:6 0.0385
*RES
2 inst_379:B net_1382:6 0.0050
3 net_1382:1 inst_1596:ZN 0.0050
4 net_1382:1 net_1382:2 0.0010
5 net_1382:3 net_1382:2 0.0050
6 net_1382:3 net_1382:4 0.0054
7 net_1382:5 net_1382:4 0.0050
8 net_1382:5 net_1382:6 0.0035
*END

*D_NET net_1244 0.3306
*CONN
*I inst_329:ZN O
*I inst_1222:A2 I
*I inst_340:A I
*CAP
1 inst_329:ZN 0.0166
2 inst_1222:A2 0.0166
3 inst_340:A 0.0166
4 net_1244:1 0.0662
5 net_1244:2 0.0662
6 net_1244:3 0.0179
7 net_1244:4 0.0466
8 net_1244:5 0.0162
9 net_1244:6 0.0162
10 net_1244:7 0.0152
11 net_1244:8 0.0363
*RES
2 net_1244:1 inst_340:A 0.0050
3 net_1244:1 net_1244:2 0.0060
4 net_1244:3 net_1244:2 0.0050
5 net_1244:4 net_1244:3 0.0014
6 net_1244:4 net_1244:5 0.0050
7 net_1244:5 net_1244:6 0.0010
8 net_1244:6 inst_1222:A2 0.0050
9 net_1244:7 inst_329:ZN 0.0050
10 net_1244:8 net_1244:4 0.0041
11 net_1244:8 net_1244:7 0.0050
*END

*D_NET net_54 0.1412
*CONN
*I inst_485:ZN O
*I inst_494:A1 I
*CAP
1 inst_485:ZN 0.0410
2 inst_494:A1 0.0166
3 net_54:1 0.0493
4 net_54:2 0.0171
5 net_54:3 0.0171
*RES
2 inst_494:A1 net_54:3 0.0050
3 net_54:1 inst_485:ZN 0.0052
4 net_54:2 net_54:1 0.0050
5 net_54:2 net_54:3 0.0010
*END

*D_NET net_1215 0.1099
*CONN
*I inst_1572:ZN O
*I inst_1223:A2 I
*CAP
1 inst_1572:ZN 0.0166
2 inst_1223:A2 0.0166
3 net_1215:1 0.0383
4 net_1215:2 0.0383
*RES
2 inst_1572:ZN net_1215:2 0.0050
3 net_1215:1 inst_1223:A2 0.0050
4 net_1215:1 net_1215:2 0.0030
*END

*D_NET net_526 0.3007
*CONN
*I inst_121:ZN O
*I inst_922:A1 I
*I inst_139:A I
*CAP
1 inst_121:ZN 0.0166
2 inst_922:A1 0.0166
3 inst_139:A 0.0166
4 net_526:1 0.0162
5 net_526:2 0.0162
6 net_526:3 0.0321
7 net_526:4 0.0321
8 net_526:5 0.0753
9 net_526:6 0.0791
*RES
2 net_526:1 inst_922:A1 0.0050
3 net_526:2 net_526:1 0.0010
4 net_526:3 net_526:2 0.0050
5 net_526:4 net_526:3 0.0020
6 net_526:5 inst_139:A 0.0050
7 net_526:5 net_526:4 0.0050
8 net_526:5 net_526:6 0.0100
9 net_526:6 inst_121:ZN 0.0050
*END

*D_NET net_943 0.3379
*CONN
*I inst_591:ZN O
*I inst_1098:A1 I
*I inst_253:B I
*CAP
1 inst_591:ZN 0.0332
2 inst_1098:A1 0.0166
3 inst_253:B 0.0166
4 net_943:1 0.0152
5 net_943:2 0.0479
6 net_943:3 0.0479
7 net_943:4 0.0388
8 net_943:5 0.0388
9 net_943:6 0.0414
10 net_943:7 0.0414
*RES
2 inst_591:ZN net_943:7 0.0050
3 inst_591:ZN net_943:5 0.0050
4 net_943:1 inst_1098:A1 0.0050
5 net_943:2 net_943:1 0.0050
6 net_943:2 net_943:3 0.0034
7 net_943:4 net_943:3 0.0050
8 net_943:5 net_943:4 0.0025
9 net_943:6 inst_253:B 0.0050
10 net_943:6 net_943:7 0.0030
*END

*D_NET n6240gat 0.4626
*CONN
*I inst_443:ZN O
*P n6240gat O
*CAP
1 n6240gat 0.0010
2 inst_443:ZN 0.1911
3 n6240gat:1 0.2035
4 n6240gat:2 0.0368
5 n6240gat:3 0.0302
*RES
2 inst_443:ZN n6240gat:1 0.0278
3 n6240gat:2 n6240gat:1 0.0050
4 n6240gat:2 n6240gat:3 0.0031
5 n6240gat:3 n6240gat 0.0010
*END

*D_NET net_834 0.4318
*CONN
*I inst_1052:ZN O
*I inst_1082:A2 I
*CAP
1 inst_1052:ZN 0.0152
2 inst_1082:A2 0.0503
3 net_834:1 0.0235
4 net_834:2 0.0152
5 net_834:3 0.1184
6 net_834:4 0.1184
7 net_834:5 0.0162
8 net_834:6 0.0162
9 net_834:7 0.0586
*RES
2 inst_1052:ZN net_834:1 0.0021
3 net_834:2 net_834:1 0.0050
4 net_834:3 net_834:2 0.0050
5 net_834:3 net_834:4 0.0129
6 net_834:5 net_834:4 0.0050
7 net_834:5 net_834:6 0.0010
8 net_834:7 inst_1082:A2 0.0062
9 net_834:7 net_834:6 0.0050
*END

*D_NET net_429 0.1793
*CONN
*I inst_879:ZN O
*I inst_883:A2 I
*CAP
1 inst_879:ZN 0.0166
2 inst_883:A2 0.0166
3 net_429:1 0.0220
4 net_429:2 0.0220
5 net_429:3 0.0223
6 net_429:4 0.0223
7 net_429:5 0.0287
8 net_429:6 0.0287
*RES
2 inst_879:ZN net_429:6 0.0050
3 net_429:1 inst_883:A2 0.0050
4 net_429:1 net_429:2 0.0015
5 net_429:3 net_429:2 0.0050
6 net_429:3 net_429:4 0.0014
7 net_429:5 net_429:4 0.0050
8 net_429:5 net_429:6 0.0015
*END

*D_NET net_694 0.2726
*CONN
*I inst_758:ZN O
*I inst_988:A1 I
*I inst_182:A I
*CAP
1 inst_758:ZN 0.0166
2 inst_988:A1 0.0166
3 inst_182:A 0.0166
4 net_694:1 0.0289
5 net_694:2 0.0311
6 net_694:3 0.0768
7 net_694:4 0.0227
8 net_694:5 0.0633
*RES
2 net_694:1 inst_988:A1 0.0050
3 net_694:2 net_694:1 0.0015
4 net_694:2 net_694:3 0.0010
5 net_694:3 net_694:5 0.0065
6 net_694:4 inst_182:A 0.0050
7 net_694:4 net_694:3 0.0015
8 net_694:5 inst_758:ZN 0.0050
*END

*D_NET net_129 0.1773
*CONN
*I inst_1653:ZN O
*I inst_515:A2 I
*CAP
1 inst_1653:ZN 0.0076
2 inst_515:A2 0.0228
3 net_129:1 0.0159
4 net_129:2 0.0500
5 net_129:3 0.0500
6 net_129:4 0.0311
*RES
2 inst_515:A2 net_129:4 0.0031
3 net_129:1 inst_1653:ZN 0.0010
4 net_129:2 net_129:1 0.0050
5 net_129:2 net_129:3 0.0050
6 net_129:4 net_129:3 0.0050
*END

*D_NET net_1389 0.4896
*CONN
*I inst_594:ZN O
*I inst_1286:A1 I
*I inst_376:B I
*CAP
1 inst_594:ZN 0.0230
2 inst_1286:A1 0.0166
3 inst_376:B 0.0166
4 net_1389:1 0.0152
5 net_1389:2 0.0083
6 net_1389:3 0.0083
7 net_1389:4 0.1063
8 net_1389:5 0.1063
9 net_1389:6 0.0299
10 net_1389:7 0.0229
11 net_1389:8 0.0310
12 net_1389:9 0.0272
13 net_1389:10 0.0313
14 net_1389:11 0.0161
15 net_1389:12 0.0161
16 net_1389:13 0.0146
*RES
2 inst_594:ZN net_1389:10 0.0031
3 net_1389:1 inst_1286:A1 0.0050
4 net_1389:2 net_1389:1 0.0050
5 net_1389:2 net_1389:3 0.0010
6 net_1389:4 net_1389:3 0.0050
7 net_1389:5 net_1389:4 0.0029
8 net_1389:6 net_1389:5 0.0050
9 net_1389:6 net_1389:7 0.0026
10 net_1389:7 net_1389:8 0.0050
11 net_1389:8 net_1389:9 0.0025
12 net_1389:9 inst_376:B 0.0050
13 net_1389:11 net_1389:10 0.0050
14 net_1389:11 net_1389:12 0.0010
15 net_1389:13 net_1389:6 0.0010
16 net_1389:13 net_1389:12 0.0050
*END

*D_NET net_648 0.2076
*CONN
*I inst_1483:ZN O
*I inst_994:A1 I
*CAP
1 inst_1483:ZN 0.0166
2 inst_994:A1 0.0166
3 net_648:1 0.0325
4 net_648:2 0.0363
5 net_648:3 0.0363
6 net_648:4 0.0363
7 net_648:5 0.0165
8 net_648:6 0.0165
*RES
2 inst_1483:ZN net_648:6 0.0050
3 net_648:1 inst_994:A1 0.0050
4 net_648:1 net_648:2 0.0020
5 net_648:3 net_648:2 0.0050
6 net_648:4 net_648:3 0.0034
7 net_648:5 net_648:4 0.0050
8 net_648:5 net_648:6 0.0010
*END

*D_NET net_373 0.3969
*CONN
*I inst_621:ZN O
*I inst_848:A1 I
*I inst_86:B I
*CAP
1 inst_621:ZN 0.0159
2 inst_848:A1 0.0166
3 inst_86:B 0.0166
4 net_373:1 0.0539
5 net_373:2 0.0360
6 net_373:3 0.0112
7 net_373:4 0.0112
8 net_373:5 0.0452
9 net_373:6 0.0452
10 net_373:7 0.0103
11 net_373:8 0.0103
12 net_373:9 0.0152
13 net_373:10 0.0243
14 net_373:11 0.0257
15 net_373:12 0.0280
16 net_373:13 0.0316
*RES
2 inst_621:ZN net_373:10 0.0031
3 net_373:1 inst_848:A1 0.0050
4 net_373:1 net_373:13 0.0035
5 net_373:2 net_373:1 0.0020
6 net_373:2 net_373:3 0.0050
7 net_373:4 net_373:3 0.0010
8 net_373:4 net_373:5 0.0050
9 net_373:6 net_373:5 0.0011
10 net_373:6 net_373:7 0.0050
11 net_373:8 net_373:7 0.0010
12 net_373:8 net_373:9 0.0050
13 net_373:9 inst_86:B 0.0050
14 net_373:11 net_373:10 0.0050
15 net_373:12 net_373:11 0.0015
16 net_373:12 net_373:13 0.0010
*END

*D_NET net_98 0.7839
*CONN
*I inst_477:ZN O
*I inst_500:A2 I
*I inst_505:A1 I
*I inst_19:A I
*CAP
1 inst_477:ZN 0.0321
2 inst_500:A2 0.0166
3 inst_505:A1 0.0166
4 inst_19:A 0.0166
5 net_98:1 0.0152
6 net_98:2 0.0407
7 net_98:3 0.0407
8 net_98:4 0.0403
9 net_98:5 0.0403
10 net_98:6 0.0238
11 net_98:7 0.0337
12 net_98:8 0.0337
13 net_98:9 0.0334
14 net_98:10 0.0372
15 net_98:11 0.0213
16 net_98:12 0.0213
17 net_98:13 0.0401
18 net_98:14 0.0867
19 net_98:15 0.0542
20 net_98:16 0.0621
21 net_98:17 0.0621
22 net_98:18 0.0152
*RES
2 inst_477:ZN net_98:5 0.0050
3 net_98:1 inst_500:A2 0.0050
4 net_98:2 net_98:1 0.0050
5 net_98:3 net_98:2 0.0027
6 net_98:4 net_98:3 0.0050
7 net_98:4 net_98:5 0.0025
8 net_98:6 inst_477:ZN 0.0021
9 net_98:7 net_98:6 0.0050
10 net_98:7 net_98:8 0.0020
11 net_98:9 net_98:8 0.0050
12 net_98:10 net_98:9 0.0027
13 net_98:11 net_98:10 0.0050
14 net_98:11 net_98:12 0.0010
15 net_98:13 net_98:12 0.0050
16 net_98:14 net_98:13 0.0047
17 net_98:15 net_98:14 0.0061
18 net_98:15 net_98:16 0.0050
19 net_98:16 net_98:17 0.0045
20 net_98:17 inst_505:A1 0.0050
21 net_98:18 inst_19:A 0.0050
22 net_98:18 net_98:14 0.0050
*END

*D_NET net_1434 0.0287
*CONN
*I inst_1601:ZN O
*I inst_1312:A2 I
*CAP
1 inst_1601:ZN 0.0143
2 inst_1312:A2 0.0143
*RES
2 inst_1601:ZN inst_1312:A2 0.0021
*END

*D_NET net_739 0.2064
*CONN
*I inst_189:ZN O
*I inst_1012:A2 I
*I inst_197:A I
*CAP
1 inst_189:ZN 0.0072
2 inst_1012:A2 0.0166
3 inst_197:A 0.0166
4 net_739:1 0.0171
5 net_739:2 0.0382
6 net_739:3 0.0196
7 net_739:4 0.0289
8 net_739:5 0.0312
9 net_739:6 0.0310
*RES
2 inst_189:ZN net_739:3 0.0010
3 net_739:1 inst_1012:A2 0.0050
4 net_739:2 net_739:1 0.0010
5 net_739:2 net_739:3 0.0050
6 net_739:4 inst_197:A 0.0050
7 net_739:4 net_739:5 0.0030
8 net_739:6 net_739:2 0.0025
9 net_739:6 net_739:5 0.0010
*END

*D_NET net_980 0.1695
*CONN
*I inst_1533:ZN O
*I inst_287:B I
*CAP
1 inst_1533:ZN 0.0166
2 inst_287:B 0.0166
3 net_980:1 0.0152
4 net_980:2 0.0529
5 net_980:3 0.0529
6 net_980:4 0.0152
*RES
2 inst_1533:ZN net_980:4 0.0050
3 net_980:1 inst_287:B 0.0050
4 net_980:2 net_980:1 0.0050
5 net_980:3 net_980:2 0.0027
6 net_980:4 net_980:3 0.0050
*END

*D_NET net_151 0.3574
*CONN
*I inst_20:ZN O
*I inst_1660:A2 I
*I inst_26:B I
*CAP
1 inst_20:ZN 0.0287
2 inst_1660:A2 0.0166
3 inst_26:B 0.0166
4 net_151:1 0.0577
5 net_151:2 0.0600
6 net_151:3 0.0238
7 net_151:4 0.0265
8 net_151:5 0.0293
9 net_151:6 0.0293
10 net_151:7 0.0152
11 net_151:8 0.0411
12 net_151:9 0.0126
*RES
2 net_151:1 inst_1660:A2 0.0050
3 net_151:2 net_151:1 0.0035
4 net_151:2 net_151:3 0.0010
5 net_151:4 net_151:3 0.0020
6 net_151:4 net_151:5 0.0050
7 net_151:5 net_151:6 0.0020
8 net_151:6 net_151:7 0.0050
9 net_151:7 net_151:8 0.0050
10 net_151:8 inst_20:ZN 0.0041
11 net_151:9 inst_26:B 0.0050
12 net_151:9 net_151:4 0.0010
*END

*D_NET net_356 0.1562
*CONN
*I inst_840:ZN O
*I inst_854:A2 I
*CAP
1 inst_840:ZN 0.0166
2 inst_854:A2 0.0166
3 net_356:1 0.0615
4 net_356:2 0.0615
*RES
2 inst_854:A2 net_356:2 0.0050
3 net_356:1 inst_840:ZN 0.0050
4 net_356:1 net_356:2 0.0045
*END

*D_NET net_53 0.3259
*CONN
*I inst_468:ZN O
*I inst_485:A2 I
*I inst_488:A2 I
*CAP
1 inst_468:ZN 0.0166
2 inst_485:A2 0.0166
3 inst_488:A2 0.0166
4 net_53:1 0.0457
5 net_53:2 0.0419
6 net_53:3 0.0152
7 net_53:4 0.0866
8 net_53:5 0.0866
*RES
2 net_53:1 inst_485:A2 0.0050
3 net_53:1 net_53:2 0.0025
4 net_53:2 inst_488:A2 0.0050
5 net_53:3 inst_468:ZN 0.0050
6 net_53:4 net_53:3 0.0050
7 net_53:5 net_53:1 0.0050
8 net_53:5 net_53:4 0.0061
*END

*D_NET net_1377 0.1513
*CONN
*I inst_1280:ZN O
*I inst_1310:A2 I
*CAP
1 inst_1280:ZN 0.0072
2 inst_1310:A2 0.0147
3 net_1377:1 0.0155
4 net_1377:2 0.0152
5 net_1377:3 0.0303
6 net_1377:4 0.0303
7 net_1377:5 0.0152
8 net_1377:6 0.0230
*RES
2 inst_1280:ZN net_1377:1 0.0010
3 net_1377:2 net_1377:1 0.0050
4 net_1377:3 net_1377:2 0.0050
5 net_1377:3 net_1377:4 0.0027
6 net_1377:5 net_1377:4 0.0050
7 net_1377:6 inst_1310:A2 0.0031
8 net_1377:6 net_1377:5 0.0050
*END

*D_NET net_1625 0.3558
*CONN
*I inst_1393:ZN O
*I inst_1394:A2 I
*CAP
1 inst_1393:ZN 0.0166
2 inst_1394:A2 0.0069
3 net_1625:1 0.1585
4 net_1625:2 0.1585
5 net_1625:3 0.0153
*RES
2 inst_1394:A2 net_1625:3 0.0010
3 net_1625:1 inst_1393:ZN 0.0050
4 net_1625:1 net_1625:2 0.0130
5 net_1625:3 net_1625:2 0.0050
*END

*D_NET net_452 0.3340
*CONN
*I inst_551:ZN O
*I inst_881:A1 I
*I inst_116:B I
*CAP
1 inst_551:ZN 0.0166
2 inst_881:A1 0.0166
3 inst_116:B 0.0166
4 net_452:1 0.0377
5 net_452:2 0.0400
6 net_452:3 0.0380
7 net_452:4 0.0357
8 net_452:5 0.0152
9 net_452:6 0.0588
10 net_452:7 0.0588
*RES
2 net_452:1 inst_881:A1 0.0050
3 net_452:2 net_452:1 0.0030
4 net_452:2 net_452:3 0.0010
5 net_452:4 inst_116:B 0.0050
6 net_452:4 net_452:3 0.0025
7 net_452:5 inst_551:ZN 0.0050
8 net_452:6 net_452:5 0.0050
9 net_452:6 net_452:7 0.0047
10 net_452:7 net_452:1 0.0050
*END

*D_NET net_1570 0.0143
*CONN
*I inst_1624:ZN O
*I inst_1373:A2 I
*CAP
1 inst_1624:ZN 0.0072
2 inst_1373:A2 0.0072
*RES
2 inst_1624:ZN inst_1373:A2 0.0010
*END

*D_NET net_974 0.2291
*CONN
*I inst_1109:ZN O
*I inst_1141:A2 I
*CAP
1 inst_1109:ZN 0.0072
2 inst_1141:A2 0.0077
3 net_974:1 0.0196
4 net_974:2 0.0152
5 net_974:3 0.0618
6 net_974:4 0.0618
7 net_974:5 0.0178
8 net_974:6 0.0178
9 net_974:7 0.0202
*RES
2 inst_1109:ZN net_974:1 0.0010
3 net_974:2 net_974:1 0.0050
4 net_974:3 net_974:2 0.0050
5 net_974:3 net_974:4 0.0054
6 net_974:5 net_974:4 0.0050
7 net_974:6 net_974:5 0.0010
8 net_974:7 inst_1141:A2 0.0010
9 net_974:7 net_974:6 0.0050
*END

*D_NET net_545 0.2578
*CONN
*I inst_129:ZN O
*I inst_926:A2 I
*I inst_143:A I
*CAP
1 inst_129:ZN 0.0166
2 inst_926:A2 0.0166
3 inst_143:A 0.0166
4 net_545:1 0.0983
5 net_545:2 0.0532
6 net_545:3 0.0565
*RES
2 net_545:1 inst_926:A2 0.0050
3 net_545:1 net_545:3 0.0076
4 net_545:2 inst_143:A 0.0050
5 net_545:2 net_545:1 0.0065
6 net_545:3 inst_129:ZN 0.0050
*END

*D_NET net_1483 0.4678
*CONN
*I inst_671:ZN O
*I inst_1327:A1 I
*I inst_405:B I
*CAP
1 inst_671:ZN 0.0230
2 inst_1327:A1 0.0166
3 inst_405:B 0.0166
4 net_1483:1 0.0152
5 net_1483:2 0.0396
6 net_1483:3 0.0396
7 net_1483:4 0.0526
8 net_1483:5 0.0273
9 net_1483:6 0.0313
10 net_1483:7 0.0181
11 net_1483:8 0.0181
12 net_1483:9 0.0665
13 net_1483:10 0.0665
14 net_1483:11 0.0367
*RES
2 inst_671:ZN net_1483:6 0.0031
3 net_1483:1 inst_405:B 0.0050
4 net_1483:2 net_1483:1 0.0050
5 net_1483:3 net_1483:2 0.0034
6 net_1483:4 net_1483:3 0.0050
7 net_1483:4 net_1483:11 0.0020
8 net_1483:5 inst_1327:A1 0.0050
9 net_1483:5 net_1483:4 0.0020
10 net_1483:7 net_1483:6 0.0050
11 net_1483:8 net_1483:7 0.0010
12 net_1483:9 net_1483:8 0.0050
13 net_1483:9 net_1483:10 0.0054
14 net_1483:11 net_1483:10 0.0050
*END

*D_NET net_284 0.3142
*CONN
*I inst_65:ZN O
*I inst_1437:A I
*I inst_820:A2 I
*CAP
1 inst_65:ZN 0.0166
2 inst_1437:A 0.0166
3 inst_820:A2 0.0072
4 net_284:1 0.0152
5 net_284:2 0.1005
6 net_284:3 0.0570
7 net_284:4 0.0152
8 net_284:5 0.0196
9 net_284:6 0.0152
10 net_284:7 0.0511
*RES
2 net_284:1 inst_1437:A 0.0050
3 net_284:2 net_284:1 0.0050
4 net_284:2 net_284:3 0.0054
5 net_284:3 net_284:4 0.0050
6 net_284:4 net_284:5 0.0050
7 net_284:5 inst_820:A2 0.0010
8 net_284:6 inst_65:ZN 0.0050
9 net_284:7 net_284:2 0.0034
10 net_284:7 net_284:6 0.0050
*END

*D_NET net_560 0.2219
*CONN
*I inst_1470:ZN O
*I inst_946:A2 I
*CAP
1 inst_1470:ZN 0.0166
2 inst_946:A2 0.0166
3 net_560:1 0.0327
4 net_560:2 0.0350
5 net_560:3 0.0616
6 net_560:4 0.0593
*RES
2 inst_946:A2 net_560:4 0.0050
3 net_560:1 inst_1470:ZN 0.0050
4 net_560:2 net_560:1 0.0020
5 net_560:2 net_560:3 0.0010
6 net_560:4 net_560:3 0.0075
*END

*D_NET net_774 0.4367
*CONN
*I inst_199:ZN O
*I inst_1503:A I
*I inst_211:A I
*CAP
1 inst_199:ZN 0.0166
2 inst_1503:A 0.0072
3 inst_211:A 0.0166
4 net_774:1 0.0196
5 net_774:2 0.0650
6 net_774:3 0.0696
7 net_774:4 0.0744
8 net_774:5 0.0744
9 net_774:6 0.0152
10 net_774:7 0.0307
11 net_774:8 0.0329
12 net_774:9 0.0145
*RES
2 net_774:1 inst_1503:A 0.0010
3 net_774:2 net_774:1 0.0050
4 net_774:2 net_774:3 0.0065
5 net_774:3 net_774:9 0.0010
6 net_774:3 net_774:4 0.0050
7 net_774:4 net_774:5 0.0061
8 net_774:5 net_774:6 0.0050
9 net_774:6 inst_211:A 0.0050
10 net_774:7 inst_199:ZN 0.0050
11 net_774:8 net_774:7 0.0035
12 net_774:8 net_774:9 0.0010
*END

*D_NET net_923 0.4142
*CONN
*I inst_685:ZN O
*I inst_1086:A1 I
*I inst_245:A I
*CAP
1 inst_685:ZN 0.0166
2 inst_1086:A1 0.0166
3 inst_245:A 0.0332
4 net_923:1 0.0452
5 net_923:2 0.0452
6 net_923:3 0.0232
7 net_923:4 0.0232
8 net_923:5 0.0273
9 net_923:6 0.0273
10 net_923:7 0.0204
11 net_923:8 0.0204
12 net_923:9 0.0199
13 net_923:10 0.0199
14 net_923:11 0.0379
15 net_923:12 0.0379
*RES
2 inst_685:ZN net_923:12 0.0050
3 inst_245:A net_923:6 0.0050
4 net_923:1 inst_1086:A1 0.0050
5 net_923:2 net_923:1 0.0045
6 net_923:3 net_923:2 0.0050
7 net_923:3 net_923:4 0.0014
8 net_923:5 net_923:4 0.0050
9 net_923:6 net_923:5 0.0025
10 net_923:7 inst_245:A 0.0050
11 net_923:8 net_923:7 0.0010
12 net_923:9 net_923:8 0.0050
13 net_923:9 net_923:10 0.0014
14 net_923:11 net_923:10 0.0050
15 net_923:12 net_923:11 0.0020
*END

*D_NET net_826 0.1307
*CONN
*I inst_1511:ZN O
*I inst_1057:A2 I
*CAP
1 inst_1511:ZN 0.0166
2 inst_1057:A2 0.0166
3 net_826:1 0.0487
4 net_826:2 0.0487
*RES
2 inst_1511:ZN net_826:2 0.0050
3 net_826:1 inst_1057:A2 0.0050
4 net_826:2 net_826:1 0.0030
*END

*D_NET net_439 0.6235
*CONN
*I inst_106:ZN O
*I inst_1455:A I
*I inst_120:B I
*CAP
1 inst_106:ZN 0.0054
2 inst_1455:A 0.0166
3 inst_120:B 0.0166
4 net_439:1 0.0361
5 net_439:2 0.0361
6 net_439:3 0.0847
7 net_439:4 0.0847
8 net_439:5 0.0310
9 net_439:6 0.0197
10 net_439:7 0.0179
11 net_439:8 0.0514
12 net_439:9 0.0514
13 net_439:10 0.0747
14 net_439:11 0.0747
15 net_439:12 0.0227
*RES
2 inst_106:ZN net_439:7 0.0010
3 net_439:1 inst_120:B 0.0050
4 net_439:2 net_439:1 0.0040
5 net_439:3 net_439:2 0.0050
6 net_439:3 net_439:4 0.0081
7 net_439:5 net_439:4 0.0050
8 net_439:5 net_439:12 0.0010
9 net_439:6 inst_1455:A 0.0050
10 net_439:6 net_439:5 0.0010
11 net_439:8 net_439:7 0.0050
12 net_439:9 net_439:8 0.0060
13 net_439:10 net_439:9 0.0050
14 net_439:11 net_439:10 0.0102
15 net_439:12 net_439:11 0.0050
*END

*D_NET net_259 0.1301
*CONN
*I inst_797:ZN O
*I inst_819:A2 I
*CAP
1 inst_797:ZN 0.0248
2 inst_819:A2 0.0077
3 net_259:1 0.0160
4 net_259:2 0.0242
5 net_259:3 0.0242
6 net_259:4 0.0331
*RES
2 inst_797:ZN net_259:4 0.0031
3 net_259:1 inst_819:A2 0.0010
4 net_259:2 net_259:1 0.0050
5 net_259:2 net_259:3 0.0010
6 net_259:4 net_259:3 0.0050
*END

*D_NET net_548 0.2320
*CONN
*I inst_131:ZN O
*I inst_927:A2 I
*I inst_145:A I
*CAP
1 inst_131:ZN 0.0166
2 inst_927:A2 0.0166
3 inst_145:A 0.0166
4 net_548:1 0.0152
5 net_548:2 0.0339
6 net_548:3 0.0556
7 net_548:4 0.0152
8 net_548:5 0.0164
9 net_548:6 0.0164
10 net_548:7 0.0293
*RES
2 net_548:1 inst_927:A2 0.0050
3 net_548:2 net_548:1 0.0050
4 net_548:3 net_548:2 0.0027
5 net_548:3 net_548:4 0.0050
6 net_548:4 inst_145:A 0.0050
7 net_548:5 inst_131:ZN 0.0050
8 net_548:5 net_548:6 0.0010
9 net_548:7 net_548:3 0.0020
10 net_548:7 net_548:6 0.0050
*END

*D_NET n443gat 7.0743
*CONN
*P n443gat I
*I inst_532:A2 I
*I inst_563:A2 I
*I inst_573:A2 I
*I inst_591:A2 I
*I inst_607:A2 I
*I inst_618:A2 I
*I inst_622:A2 I
*I inst_632:A2 I
*I inst_641:A2 I
*I inst_674:A2 I
*I inst_680:A2 I
*I inst_701:A2 I
*I inst_704:A2 I
*I inst_750:A2 I
*I inst_752:A2 I
*I inst_754:A2 I
*CAP
1 n443gat 0.0130
2 inst_532:A2 0.0072
3 inst_563:A2 0.0166
4 inst_573:A2 0.0166
5 inst_591:A2 0.0072
6 inst_607:A2 0.0166
7 inst_618:A2 0.0166
8 inst_622:A2 0.0072
9 inst_632:A2 0.0166
10 inst_641:A2 0.0166
11 inst_674:A2 0.0153
12 inst_680:A2 0.0166
13 inst_701:A2 0.0166
14 inst_704:A2 0.0202
15 inst_750:A2 0.0166
16 inst_752:A2 0.0166
17 inst_754:A2 0.0166
18 n443gat:1 0.0382
19 n443gat:2 0.0082
20 n443gat:3 0.0738
21 n443gat:4 0.1480
22 n443gat:5 0.1480
23 n443gat:6 0.0342
24 n443gat:7 0.0342
25 n443gat:8 0.1167
26 n443gat:9 0.1296
27 n443gat:10 0.0307
28 n443gat:11 0.0911
29 n443gat:12 0.0911
30 n443gat:13 0.0541
31 n443gat:14 0.0541
32 n443gat:15 0.0160
33 n443gat:16 0.0833
34 n443gat:17 0.0943
35 n443gat:18 0.0226
36 n443gat:19 0.1200
37 n443gat:20 0.1200
38 n443gat:21 0.1236
39 n443gat:22 0.1236
40 n443gat:23 0.0420
41 n443gat:24 0.0881
42 n443gat:25 0.0512
43 n443gat:26 0.0715
44 n443gat:27 0.0715
45 n443gat:28 0.0709
46 n443gat:29 0.0709
47 n443gat:30 0.0155
48 n443gat:31 0.0140
49 n443gat:32 0.0244
50 n443gat:33 0.0244
51 n443gat:34 0.0696
52 n443gat:35 0.0696
53 n443gat:36 0.0769
54 n443gat:37 0.0562
55 n443gat:38 0.0419
56 n443gat:39 0.1529
57 n443gat:40 0.1397
58 n443gat:41 0.0482
59 n443gat:42 0.0207
60 n443gat:43 0.0207
61 n443gat:44 0.0310
62 n443gat:45 0.0310
63 n443gat:46 0.0566
64 n443gat:47 0.0566
65 n443gat:48 0.0231
66 n443gat:49 0.0160
67 n443gat:50 0.0721
68 n443gat:51 0.0721
69 n443gat:52 0.0270
70 n443gat:53 0.0887
71 n443gat:54 0.0693
72 n443gat:55 0.1161
73 n443gat:56 0.1161
74 n443gat:57 0.0241
75 n443gat:58 0.0241
76 n443gat:59 0.0320
77 n443gat:60 0.0906
78 n443gat:61 0.0700
79 n443gat:62 0.0711
80 n443gat:63 0.0711
81 n443gat:64 0.0392
82 n443gat:65 0.0392
83 n443gat:66 0.0322
84 n443gat:67 0.0322
85 n443gat:68 0.0340
86 n443gat:69 0.0340
87 n443gat:70 0.0664
88 n443gat:71 0.0155
89 n443gat:72 0.0403
90 n443gat:73 0.0403
91 n443gat:74 0.0208
92 n443gat:75 0.0236
93 n443gat:76 0.0195
94 n443gat:77 0.0195
95 n443gat:78 0.0795
96 n443gat:79 0.0206
97 n443gat:80 0.0203
98 n443gat:81 0.2258
99 n443gat:82 0.2207
100 n443gat:83 0.0177
101 n443gat:84 0.3739
102 n443gat:85 0.3739
103 n443gat:86 0.0354
104 n443gat:87 0.0354
105 n443gat:88 0.3591
106 n443gat:89 0.3591
107 n443gat:90 0.0297
108 n443gat:91 0.0297
109 n443gat:92 0.0287
*RES
2 n443gat n443gat:79 0.0010
3 inst_622:A2 n443gat:18 0.0010
4 inst_674:A2 n443gat:75 0.0021
5 inst_704:A2 n443gat:69 0.0050
6 n443gat:1 inst_641:A2 0.0050
7 n443gat:1 n443gat:23 0.0025
8 n443gat:2 n443gat:1 0.0050
9 n443gat:3 n443gat:2 0.0010
10 n443gat:3 n443gat:4 0.0050
11 n443gat:5 n443gat:4 0.0044
12 n443gat:5 n443gat:6 0.0050
13 n443gat:7 n443gat:6 0.0020
14 n443gat:7 n443gat:8 0.0050
15 n443gat:8 n443gat:31 0.0010
16 n443gat:9 n443gat:8 0.0130
17 n443gat:9 n443gat:75 0.0050
18 n443gat:10 n443gat:9 0.0015
19 n443gat:10 n443gat:11 0.0050
20 n443gat:11 n443gat:12 0.0081
21 n443gat:12 n443gat:13 0.0050
22 n443gat:14 n443gat:13 0.0050
23 n443gat:14 n443gat:15 0.0050
24 n443gat:15 inst_704:A2 0.0010
25 n443gat:16 inst_618:A2 0.0050
26 n443gat:16 n443gat:78 0.0065
27 n443gat:17 n443gat:3 0.0074
28 n443gat:17 n443gat:16 0.0050
29 n443gat:18 n443gat:30 0.0010
30 n443gat:19 n443gat:18 0.0050
31 n443gat:20 n443gat:19 0.0140
32 n443gat:21 n443gat:20 0.0050
33 n443gat:22 n443gat:21 0.0136
34 n443gat:23 n443gat:22 0.0050
35 n443gat:24 inst_632:A2 0.0050
36 n443gat:24 n443gat:41 0.0035
37 n443gat:25 n443gat:24 0.0065
38 n443gat:26 n443gat:25 0.0050
39 n443gat:27 n443gat:26 0.0095
40 n443gat:28 n443gat:27 0.0050
41 n443gat:29 n443gat:28 0.0070
42 n443gat:30 n443gat:29 0.0050
43 n443gat:31 inst_701:A2 0.0050
44 n443gat:32 inst_752:A2 0.0050
45 n443gat:33 n443gat:32 0.0020
46 n443gat:34 n443gat:33 0.0050
47 n443gat:35 n443gat:34 0.0054
48 n443gat:36 n443gat:35 0.0050
49 n443gat:36 n443gat:70 0.0085
50 n443gat:37 inst_573:A2 0.0050
51 n443gat:37 n443gat:36 0.0015
52 n443gat:38 n443gat:37 0.0030
53 n443gat:39 n443gat:38 0.0050
54 n443gat:39 n443gat:74 0.0014
55 n443gat:40 n443gat:39 0.0129
56 n443gat:41 n443gat:40 0.0050
57 n443gat:42 inst_754:A2 0.0050
58 n443gat:42 n443gat:43 0.0010
59 n443gat:44 n443gat:43 0.0050
60 n443gat:44 n443gat:45 0.0020
61 n443gat:46 n443gat:45 0.0050
62 n443gat:46 n443gat:47 0.0055
63 n443gat:48 inst_591:A2 0.0010
64 n443gat:48 n443gat:47 0.0050
65 n443gat:49 n443gat:48 0.0010
66 n443gat:50 n443gat:49 0.0050
67 n443gat:50 n443gat:51 0.0095
68 n443gat:52 n443gat:51 0.0050
69 n443gat:53 n443gat:52 0.0020
70 n443gat:53 n443gat:77 0.0050
71 n443gat:54 n443gat:53 0.0075
72 n443gat:55 n443gat:54 0.0050
73 n443gat:55 n443gat:56 0.0034
74 n443gat:57 n443gat:56 0.0050
75 n443gat:58 n443gat:57 0.0014
76 n443gat:59 n443gat:58 0.0050
77 n443gat:59 n443gat:60 0.0025
78 n443gat:60 inst_750:A2 0.0050
79 n443gat:60 n443gat:61 0.0080
80 n443gat:62 n443gat:61 0.0050
81 n443gat:63 n443gat:62 0.0056
82 n443gat:64 n443gat:63 0.0050
83 n443gat:64 n443gat:65 0.0010
84 n443gat:66 n443gat:65 0.0050
85 n443gat:67 n443gat:66 0.0032
86 n443gat:68 n443gat:67 0.0050
87 n443gat:68 n443gat:69 0.0035
88 n443gat:70 inst_563:A2 0.0050
89 n443gat:71 inst_532:A2 0.0010
90 n443gat:72 n443gat:71 0.0050
91 n443gat:72 n443gat:73 0.0035
92 n443gat:74 n443gat:73 0.0050
93 n443gat:76 inst_607:A2 0.0050
94 n443gat:77 n443gat:76 0.0010
95 n443gat:78 inst_680:A2 0.0050
96 n443gat:80 n443gat:79 0.0050
97 n443gat:81 n443gat:80 0.0010
98 n443gat:81 n443gat:82 0.0196
99 n443gat:83 n443gat:82 0.0050
100 n443gat:84 n443gat:83 0.0030
101 n443gat:84 n443gat:85 0.0143
102 n443gat:86 n443gat:85 0.0030
103 n443gat:87 n443gat:86 0.0010
104 n443gat:88 n443gat:87 0.0030
105 n443gat:88 n443gat:89 0.0139
106 n443gat:90 n443gat:89 0.0030
107 n443gat:90 n443gat:91 0.0010
108 n443gat:92 n443gat:17 0.0016
109 n443gat:92 n443gat:91 0.0050
*END

*D_NET n52gat 9.6476
*CONN
*P n52gat I
*I inst_566:A1 I
*I inst_569:A1 I
*I inst_587:A1 I
*I inst_601:A1 I
*I inst_604:A1 I
*I inst_616:A1 I
*I inst_626:A1 I
*I inst_630:A1 I
*I inst_654:A1 I
*I inst_655:A1 I
*I inst_714:A1 I
*I inst_725:A1 I
*I inst_731:A1 I
*I inst_1640:A1 I
*I inst_750:A1 I
*I inst_766:A1 I
*CAP
1 n52gat 0.0130
2 inst_566:A1 0.0166
3 inst_569:A1 0.0166
4 inst_587:A1 0.0166
5 inst_601:A1 0.0166
6 inst_604:A1 0.0166
7 inst_616:A1 0.0166
8 inst_626:A1 0.0166
9 inst_630:A1 0.0166
10 inst_654:A1 0.0166
11 inst_655:A1 0.0166
12 inst_714:A1 0.0166
13 inst_725:A1 0.0166
14 inst_731:A1 0.0166
15 inst_1640:A1 0.0166
16 inst_750:A1 0.0166
17 inst_766:A1 0.0166
18 n52gat:1 0.0315
19 n52gat:2 0.0315
20 n52gat:3 0.0549
21 n52gat:4 0.0467
22 n52gat:5 0.0267
23 n52gat:6 0.0267
24 n52gat:7 0.1269
25 n52gat:8 0.1269
26 n52gat:9 0.0176
27 n52gat:10 0.0176
28 n52gat:11 0.0417
29 n52gat:12 0.0884
30 n52gat:13 0.1362
31 n52gat:14 0.1243
32 n52gat:15 0.0602
33 n52gat:16 0.0625
34 n52gat:17 0.0258
35 n52gat:18 0.0274
36 n52gat:19 0.1653
37 n52gat:20 0.1653
38 n52gat:21 0.0213
39 n52gat:22 0.0226
40 n52gat:23 0.0203
41 n52gat:24 0.1537
42 n52gat:25 0.1537
43 n52gat:26 0.0186
44 n52gat:27 0.0431
45 n52gat:28 0.0206
46 n52gat:29 0.1103
47 n52gat:30 0.1103
48 n52gat:31 0.1052
49 n52gat:32 0.1257
50 n52gat:33 0.1368
51 n52gat:34 0.1368
52 n52gat:35 0.2034
53 n52gat:36 0.2034
54 n52gat:37 0.0158
55 n52gat:38 0.0152
56 n52gat:39 0.0353
57 n52gat:40 0.0353
58 n52gat:41 0.0486
59 n52gat:42 0.0524
60 n52gat:43 0.0208
61 n52gat:44 0.0208
62 n52gat:45 0.0423
63 n52gat:46 0.0294
64 n52gat:47 0.0242
65 n52gat:48 0.0137
66 n52gat:49 0.0137
67 n52gat:50 0.0686
68 n52gat:51 0.0686
69 n52gat:52 0.1104
70 n52gat:53 0.1104
71 n52gat:54 0.0565
72 n52gat:55 0.0565
73 n52gat:56 0.0166
74 n52gat:57 0.0599
75 n52gat:58 0.0509
76 n52gat:59 0.0747
77 n52gat:60 0.0747
78 n52gat:61 0.0095
79 n52gat:62 0.1545
80 n52gat:63 0.1526
81 n52gat:64 0.0222