*SPEF "IEEE 1481-1998"
*DESIGN "changes"
*DATE "Tue Dec 02 20:34:45 2014"
*VENDOR "TAU 2015 Contest"
*PROGRAM "Benchmark Parasitic Generator"
*VERSION "0.0"
*DESIGN_FLOW "NETLIST_TYPE_VERILOG"
*DIVIDER /
*DELIMITER :
*BUS_DELIMITER [ ]
*T_UNIT 1 PS
*C_UNIT 1 FF
*R_UNIT 1 KOHM
*L_UNIT 1 UH

*D_NET TAUNET_327 3.0173
*CONN
*I TAUGATE_65:Z O
*I TAUGATE_327:A I
*I inst_102:A I
*CAP
1 TAUGATE_65:Z 0.2611
2 TAUNET_327:1 0.4098
3 TAUNET_327:2 0.5009
4 TAUNET_327:3 0.2843
5 TAUGATE_327:A 0.2878
6 TAUNET_327:4 0.4685
7 TAUNET_327:5 0.3070
8 TAUNET_327:6 0.3583
9 inst_102:A 0.1395
*RES
2 TAUGATE_65:Z TAUNET_327:1 0.1659
3 TAUNET_327:1 TAUNET_327:2 0.2742
4 TAUNET_327:2 TAUNET_327:3 0.3494
5 TAUNET_327:3 TAUGATE_327:A 0.1485
6 TAUNET_327:3 TAUNET_327:4 0.0646
7 TAUNET_327:4 TAUNET_327:5 0.0794
8 TAUNET_327:5 TAUNET_327:6 0.2161
9 TAUNET_327:6 inst_102:A 0.1614
*END

*D_NET net_1261 1.8183
*CONN
*I inst_1233:ZN O
*I inst_1260:A2 I
*CAP
1 inst_1233:ZN 0.3755
2 net_1261:1 0.4559
3 net_1261:2 0.4050
4 net_1261:3 0.0154
5 net_1261:4 0.1670
6 net_1261:5 0.1555
7 inst_1260:A2 0.2440
*RES
2 inst_1233:ZN net_1261:1 0.0332
3 net_1261:1 net_1261:2 0.0406
4 net_1261:2 net_1261:3 0.2732
5 net_1261:3 net_1261:4 0.0073
6 net_1261:4 net_1261:5 0.1308
7 net_1261:5 inst_1260:A2 0.1374
*END

*D_NET net_690 3.5954
*CONN
*I inst_606:ZN O
*I inst_180:B I
*I inst_990:A1 I
*CAP
1 inst_606:ZN 0.3706
2 net_690:1 0.4871
3 inst_990:A1 0.4951
4 net_690:2 0.3356
5 net_690:3 0.3995
6 net_690:4 0.3845
7 net_690:5 0.4708
8 net_690:6 0.3056
9 inst_180:B 0.3464
*RES
2 inst_606:ZN net_690:1 0.4125
3 net_690:1 inst_990:A1 0.0565
4 net_690:1 net_690:2 0.0305
5 net_690:2 net_690:3 0.2383
6 net_690:3 net_690:4 0.4020
7 net_690:4 net_690:5 0.2529
8 net_690:5 net_690:6 0.2665
9 net_690:6 inst_180:B 0.4354
*END

*D_NET net_755 2.3823
*CONN
*I inst_1005:ZN O
*I inst_1017:A1 I
*I inst_203:B I
*CAP
1 inst_1005:ZN 0.0788
2 net_755:1 0.3833
3 net_755:2 0.3292
4 net_755:3 0.0716
5 net_755:4 0.2236
6 inst_1017:A1 0.1922
7 net_755:5 0.2927
8 net_755:6 0.3943
9 net_755:7 0.2211
10 inst_203:B 0.1955
*RES
2 inst_1005:ZN net_755:1 0.2805
3 net_755:1 net_755:2 0.1322
4 net_755:2 net_755:3 0.1905
5 net_755:3 net_755:4 0.4017
6 net_755:4 inst_1017:A1 0.4680
7 net_755:3 net_755:5 0.1868
8 net_755:5 net_755:6 0.4889
9 net_755:6 net_755:7 0.0703
10 net_755:7 inst_203:B 0.3298
*END

*D_NET net_979 2.9580
*CONN
*I inst_255:ZN O
*I inst_1533:A I
*I inst_1149:A1 I
*CAP
1 inst_255:ZN 0.3310
2 net_979:1 0.4792
3 net_979:2 0.1808
4 net_979:3 0.0717
5 inst_1149:A1 0.3990
6 net_979:4 0.4976
7 net_979:5 0.3591
8 net_979:6 0.2780
9 net_979:7 0.2022
10 inst_1533:A 0.1593
*RES
2 inst_255:ZN net_979:1 0.4035
3 net_979:1 net_979:2 0.0219
4 net_979:2 net_979:3 0.0830
5 net_979:3 inst_1149:A1 0.4539
6 net_979:1 net_979:4 0.4382
7 net_979:4 net_979:5 0.3498
8 net_979:5 net_979:6 0.4055
9 net_979:6 net_979:7 0.4519
10 net_979:7 inst_1533:A 0.4658
*END

