*SPEF "IEEE 1481-1998"
*DESIGN "changes"
*DATE "Tue Dec 02 20:34:45 2014"
*VENDOR "TAU 2015 Contest"
*PROGRAM "Benchmark Parasitic Generator"
*VERSION "0.0"
*DESIGN_FLOW "NETLIST_TYPE_VERILOG"
*DIVIDER /
*DELIMITER :
*BUS_DELIMITER [ ]
*T_UNIT 1 PS
*C_UNIT 1 FF
*R_UNIT 1 KOHM
*L_UNIT 1 UH

*D_NET TAUNET_928 3.0173
*CONN
*I TAUGATE_675:Z O
*I TAUGATE_928:A I
*I inst_973:A2 I
*CAP
1 TAUGATE_675:Z 0.2611
2 TAUNET_928:1 0.4098
3 TAUNET_928:2 0.5009
4 TAUNET_928:3 0.2843
5 TAUGATE_928:A 0.2878
6 TAUNET_928:4 0.4685
7 TAUNET_928:5 0.3070
8 TAUNET_928:6 0.3583
9 inst_973:A2 0.1395
*RES
2 TAUGATE_675:Z TAUNET_928:1 0.1659
3 TAUNET_928:1 TAUNET_928:2 0.2742
4 TAUNET_928:2 TAUNET_928:3 0.3494
5 TAUNET_928:3 TAUGATE_928:A 0.1485
6 TAUNET_928:3 TAUNET_928:4 0.0646
7 TAUNET_928:4 TAUNET_928:5 0.0794
8 TAUNET_928:5 TAUNET_928:6 0.2161
9 TAUNET_928:6 inst_973:A2 0.1614
*END

*D_NET net_1386 1.8183
*CONN
*I inst_1284:ZN O
*I inst_1317:A1 I
*CAP
1 inst_1284:ZN 0.3755
2 net_1386:1 0.4559
3 net_1386:2 0.4050
4 net_1386:3 0.0154
5 net_1386:4 0.1670
6 net_1386:5 0.1555
7 inst_1317:A1 0.2440
*RES
2 inst_1284:ZN net_1386:1 0.0332
3 net_1386:1 net_1386:2 0.0406
4 net_1386:2 net_1386:3 0.2732
5 net_1386:3 net_1386:4 0.0073
6 net_1386:4 net_1386:5 0.1308
7 net_1386:5 inst_1317:A1 0.1374
*END

*D_NET net_1606 3.5954
*CONN
*I inst_435:ZN O
*I inst_439:B I
*I inst_1381:A1 I
*CAP
1 inst_435:ZN 0.3706
2 net_1606:1 0.4871
3 inst_1381:A1 0.4951
4 net_1606:2 0.3356
5 net_1606:3 0.3995
6 net_1606:4 0.3845
7 net_1606:5 0.4708
8 net_1606:6 0.3056
9 inst_439:B 0.3464
*RES
2 inst_435:ZN net_1606:1 0.4125
3 net_1606:1 inst_1381:A1 0.0565
4 net_1606:1 net_1606:2 0.0305
5 net_1606:2 net_1606:3 0.2383
6 net_1606:3 net_1606:4 0.4020
7 net_1606:4 net_1606:5 0.2529
8 net_1606:5 net_1606:6 0.2665
9 net_1606:6 inst_439:B 0.4354
*END

*D_NET net_1008 1.2788
*CONN
*I inst_1121:ZN O
*I inst_1135:A2 I
*CAP
1 inst_1121:ZN 0.0788
2 net_1008:1 0.3833
3 net_1008:2 0.3292
4 net_1008:3 0.0716
5 net_1008:4 0.2236
6 inst_1135:A2 0.1922
*RES
2 inst_1121:ZN net_1008:1 0.2805
3 net_1008:1 net_1008:2 0.1322
4 net_1008:2 net_1008:3 0.1905
5 net_1008:3 net_1008:4 0.4017
6 net_1008:4 inst_1135:A2 0.4680
*END

*D_NET net_1308 1.2308
*CONN
*I inst_1253:ZN O
*I inst_1282:A2 I
*CAP
1 inst_1253:ZN 0.2331
2 net_1308:1 0.3943
3 net_1308:2 0.2211
4 net_1308:3 0.1955
5 inst_1282:A2 0.1868
*RES
2 inst_1253:ZN net_1308:1 0.4889
3 net_1308:1 net_1308:2 0.0703
4 net_1308:2 net_1308:3 0.3298
5 net_1308:3 inst_1282:A2 0.4131
*END

*D_NET net_137 2.6155
*CONN
*I inst_703:ZN O
*I inst_782:A1 I
*I inst_37:B I
*CAP
1 inst_703:ZN 0.2621
2 net_137:1 0.1808
3 net_137:2 0.0717
4 net_137:3 0.3990
5 net_137:4 0.4035
6 net_137:5 0.0219
7 inst_37:B 0.0830
8 net_137:6 0.4382
9 net_137:7 0.3498
10 inst_782:A1 0.4055
*RES
2 inst_703:ZN net_137:1 0.4539
3 net_137:1 net_137:2 0.1250
4 net_137:2 net_137:3 0.3196
5 net_137:3 net_137:4 0.4976
6 net_137:4 net_137:5 0.3591
7 net_137:5 inst_37:B 0.2780
8 net_137:2 net_137:6 0.4519
9 net_137:6 net_137:7 0.4658
10 net_137:7 inst_782:A1 0.3690
*END

*D_NET net_933 1.9546
*CONN
*I TAUGATE_1719:Z O
*I inst_1104:A2 I
*I inst_255:A I
*CAP
1 TAUGATE_1719:Z 0.0632
2 net_933:1 0.4700
3 net_933:2 0.3789
4 net_933:3 0.3545
5 inst_255:A 0.1033
6 net_933:4 0.3248
7 inst_1104:A2 0.2597
*RES
2 TAUGATE_1719:Z net_933:1 0.4316
3 net_933:1 net_933:2 0.1782
4 net_933:2 net_933:3 0.4734
5 net_933:3 inst_255:A 0.0376
6 net_933:3 net_933:4 0.1267
7 net_933:4 inst_1104:A2 0.3840
*END

*D_NET net_992 1.4147
*CONN
*I inst_1537:ZN O
*I inst_1128:A2 I
*CAP
1 inst_1537:ZN 0.3726
2 net_992:1 0.2454
3 net_992:2 0.4670
4 net_992:3 0.1921
5 inst_1128:A2 0.1376
*RES
2 inst_1537:ZN net_992:1 0.4443
3 net_992:1 net_992:2 0.1288
4 net_992:2 net_992:3 0.3022
5 net_992:3 inst_1128:A2 0.1405
*END

*D_NET net_105 2.1145
*CONN
*I inst_508:ZN O
*I inst_518:A1 I
*CAP
1 inst_508:ZN 0.3699
2 net_105:1 0.4004
3 net_105:2 0.4814
4 net_105:3 0.1341
5 net_105:4 0.3915
6 net_105:5 0.0282
7 inst_518:A1 0.3089
*RES
2 inst_508:ZN net_105:1 0.0253
3 net_105:1 net_105:2 0.3105
4 net_105:2 net_105:3 0.1881
5 net_105:3 net_105:4 0.2034
6 net_105:4 net_105:5 0.1592
7 net_105:5 inst_518:A1 0.3147
*END

*D_NET net_1358 1.5517
*CONN
*I TAUGATE_54:Z O
*I inst_378:B I
*CAP
1 TAUGATE_54:Z 0.3643
2 net_1358:1 0.0666
3 net_1358:2 0.3854
4 net_1358:3 0.3580
5 inst_378:B 0.3774
*RES
2 TAUGATE_54:Z net_1358:1 0.2731
3 net_1358:1 net_1358:2 0.1525
4 net_1358:2 net_1358:3 0.0518
5 net_1358:3 inst_378:B 0.2548
*END

*D_NET net_782 2.1234
*CONN
*I inst_203:ZN O
*I inst_1507:A I
*I inst_215:A I
*CAP
1 inst_203:ZN 0.4921
2 net_782:1 0.1855
3 net_782:2 0.0112
4 inst_1507:A 0.3530
5 net_782:3 0.1620
6 net_782:4 0.0029
7 net_782:5 0.2883
8 net_782:6 0.1903
9 inst_215:A 0.4381
*RES
2 inst_203:ZN net_782:1 0.1128
3 net_782:1 net_782:2 0.2239
4 net_782:2 inst_1507:A 0.0917
5 net_782:1 net_782:3 0.3484
6 net_782:3 net_782:4 0.0801
7 net_782:4 net_782:5 0.1392
8 net_782:5 net_782:6 0.1891
9 net_782:6 inst_215:A 0.0464
*END

*D_NET TAUNET_1728 1.0649
*CONN
*I inst_1510:ZN O
*I TAUGATE_1728:A I
*CAP
1 inst_1510:ZN 0.0279
2 TAUNET_1728:1 0.0649
3 TAUNET_1728:2 0.0510
4 TAUNET_1728:3 0.1600
5 TAUNET_1728:4 0.1748
6 TAUNET_1728:5 0.4787
7 TAUGATE_1728:A 0.1076
*RES
2 inst_1510:ZN TAUNET_1728:1 0.4606
3 TAUNET_1728:1 TAUNET_1728:2 0.3388
4 TAUNET_1728:2 TAUNET_1728:3 0.4657
5 TAUNET_1728:3 TAUNET_1728:4 0.3595
6 TAUNET_1728:4 TAUNET_1728:5 0.2471
7 TAUNET_1728:5 TAUGATE_1728:A 0.0832
*END

*D_NET net_614 1.8158
*CONN
*I inst_5:Z O
*I inst_962:A2 I
*I inst_162:A I
*CAP
1 inst_5:Z 0.3736
2 net_614:1 0.3644
3 inst_962:A2 0.0829
4 net_614:2 0.1165
5 net_614:3 0.0986
6 net_614:4 0.2243
7 net_614:5 0.1286
8 inst_162:A 0.4269
*RES
2 inst_5:Z net_614:1 0.1977
3 net_614:1 inst_962:A2 0.4694
4 net_614:1 net_614:2 0.2482
5 net_614:2 net_614:3 0.2195
6 net_614:3 net_614:4 0.1533
7 net_614:4 net_614:5 0.4091
8 net_614:5 inst_162:A 0.2613
*END

*D_NET net_1389 2.7283
*CONN
*I inst_594:ZN O
*I inst_1286:A1 I
*I inst_376:B I
*CAP
1 inst_594:ZN 0.1869
2 net_1389:1 0.3047
3 net_1389:2 0.1200
4 net_1389:3 0.4969
5 net_1389:4 0.1210
6 net_1389:5 0.1733
7 inst_376:B 0.1014
8 net_1389:6 0.1317
9 net_1389:7 0.3617
10 net_1389:8 0.0856
11 net_1389:9 0.3629
12 inst_1286:A1 0.2821
*RES
2 inst_594:ZN net_1389:1 0.0283
3 net_1389:1 net_1389:2 0.2763
4 net_1389:2 net_1389:3 0.2945
5 net_1389:3 net_1389:4 0.3177
6 net_1389:4 net_1389:5 0.2101
7 net_1389:5 inst_376:B 0.3390
8 net_1389:2 net_1389:6 0.3900
9 net_1389:6 net_1389:7 0.0557
10 net_1389:7 net_1389:8 0.1253
11 net_1389:8 net_1389:9 0.2716
12 net_1389:9 inst_1286:A1 0.3735
*END

*D_NET net_53 3.1644
*CONN
*I inst_468:ZN O
*I inst_488:A2 I
*I inst_485:A2 I
*CAP
1 inst_468:ZN 0.3323
2 net_53:1 0.0362
3 net_53:2 0.4966
4 net_53:3 0.4101
5 inst_488:A2 0.2702
6 net_53:4 0.3090
7 net_53:5 0.3972
8 net_53:6 0.4228
9 net_53:7 0.2443
10 inst_485:A2 0.2458
*RES
2 inst_468:ZN net_53:1 0.2135
3 net_53:1 net_53:2 0.0419
4 net_53:2 net_53:3 0.2773
5 net_53:3 inst_488:A2 0.0903
6 net_53:1 net_53:4 0.3734
7 net_53:4 net_53:5 0.1567
8 net_53:5 net_53:6 0.1247
9 net_53:6 net_53:7 0.2439
10 net_53:7 inst_485:A2 0.2588
*END

*D_NET net_1313 1.3228
*CONN
*I inst_347:ZN O
*I inst_1254:A2 I
*I inst_358:A I
*CAP
1 inst_347:ZN 0.3528
2 net_1313:1 0.4436
3 inst_358:A 0.1981
4 net_1313:2 0.0423
5 inst_1254:A2 0.2861
*RES
2 inst_347:ZN net_1313:1 0.3275
3 net_1313:1 inst_358:A 0.0169
4 net_1313:1 net_1313:2 0.4278
5 net_1313:2 inst_1254:A2 0.3875
*END

*D_NET net_1156 1.2459
*CONN
*I inst_1187:ZN O
*I inst_1200:A2 I
*CAP
1 inst_1187:ZN 0.3740
2 net_1156:1 0.0209
3 net_1156:2 0.4380
4 inst_1200:A2 0.4130
*RES
2 inst_1187:ZN net_1156:1 0.4990
3 net_1156:1 net_1156:2 0.2134
4 net_1156:2 inst_1200:A2 0.1115
*END

*D_NET net_1377 1.6629
*CONN
*I inst_1280:ZN O
*I inst_1310:A2 I
*CAP
1 inst_1280:ZN 0.3666
2 net_1377:1 0.4464
3 net_1377:2 0.2438
4 net_1377:3 0.2969
5 inst_1310:A2 0.3091
*RES
2 inst_1280:ZN net_1377:1 0.5006
3 net_1377:1 net_1377:2 0.2264
4 net_1377:2 net_1377:3 0.3973
5 net_1377:3 inst_1310:A2 0.2044
*END

*D_NET TAUNET_1635 1.5866
*CONN
*I TAUGATE_558:Z O
*I TAUGATE_1635:A I
*CAP
1 TAUGATE_558:Z 0.3886
2 TAUNET_1635:1 0.2468
3 TAUNET_1635:2 0.4002
4 TAUNET_1635:3 0.3652
5 TAUGATE_1635:A 0.1857
*RES
2 TAUGATE_558:Z TAUNET_1635:1 0.0562
3 TAUNET_1635:1 TAUNET_1635:2 0.0882
4 TAUNET_1635:2 TAUNET_1635:3 0.4386
5 TAUNET_1635:3 TAUGATE_1635:A 0.2715
*END

*D_NET net_578 0.8240
*CONN
*I inst_1477:ZN O
*I inst_954:A2 I
*CAP
1 inst_1477:ZN 0.4145
2 net_578:1 0.1130
3 net_578:2 0.1026
4 inst_954:A2 0.1939
*RES
2 inst_1477:ZN net_578:1 0.1095
3 net_578:1 net_578:2 0.0212
4 net_578:2 inst_954:A2 0.1417
*END

*D_NET net_1483 1.9026
*CONN
*I inst_671:ZN O
*I inst_405:B I
*I inst_1327:A1 I
*CAP
1 inst_671:ZN 0.4826
2 net_1483:1 0.4033
3 net_1483:2 0.3663
4 inst_405:B 0.2540
5 net_1483:3 0.0863
6 inst_1327:A1 0.3102
*RES
2 inst_671:ZN net_1483:1 0.0526
3 net_1483:1 net_1483:2 0.2388
4 net_1483:2 inst_405:B 0.1787
5 net_1483:2 net_1483:3 0.1239
6 net_1483:3 inst_1327:A1 0.2473
*END

*D_NET net_774 3.4593
*CONN
*I inst_199:ZN O
*I inst_211:A I
*I inst_1503:A I
*CAP
1 inst_199:ZN 0.4935
2 net_774:1 0.3995
3 net_774:2 0.4441
4 net_774:3 0.4218
5 inst_211:A 0.0848
6 net_774:4 0.3985
7 net_774:5 0.0145
8 net_774:6 0.0725
9 net_774:7 0.4492
10 net_774:8 0.3124
11 inst_1503:A 0.3685
*RES
2 inst_199:ZN net_774:1 0.0266
3 net_774:1 net_774:2 0.0274
4 net_774:2 net_774:3 0.4218
5 net_774:3 inst_211:A 0.2061
6 net_774:2 net_774:4 0.4317
7 net_774:4 net_774:5 0.1801
8 net_774:5 net_774:6 0.2826
9 net_774:6 net_774:7 0.3420
10 net_774:7 net_774:8 0.0965
11 net_774:8 inst_1503:A 0.2555
*END

*D_NET net_302 1.9372
*CONN
*I inst_807:ZN O
*I inst_825:A1 I
*I inst_72:B I
*CAP
1 inst_807:ZN 0.3675
2 net_302:1 0.2869
3 net_302:2 0.1646
4 net_302:3 0.1182
5 net_302:4 0.0327
6 net_302:5 0.0608
7 inst_825:A1 0.3721
8 net_302:6 0.4486
9 net_302:7 0.0641
10 net_302:8 0.0138
11 inst_72:B 0.0079
*RES
2 inst_807:ZN net_302:1 0.4648
3 net_302:1 net_302:2 0.2376
4 net_302:2 net_302:3 0.1146
5 net_302:3 net_302:4 0.3081
6 net_302:4 net_302:5 0.1439
7 net_302:5 inst_825:A1 0.0264
8 net_302:3 net_302:6 0.0204
9 net_302:6 net_302:7 0.2219
10 net_302:7 net_302:8 0.1001
11 net_302:8 inst_72:B 0.2747
*END

*D_NET net_923 1.8119
*CONN
*I inst_685:ZN O
*I inst_245:A I
*I inst_1086:A1 I
*CAP
1 inst_685:ZN 0.2303
2 net_923:1 0.0620
3 inst_245:A 0.0267
4 net_923:2 0.2505
5 net_923:3 0.2036
6 net_923:4 0.3990
7 net_923:5 0.0185
8 net_923:6 0.3777
9 inst_1086:A1 0.2437
*RES
2 inst_685:ZN net_923:1 0.1278
3 net_923:1 inst_245:A 0.1079
4 net_923:1 net_923:2 0.3641
5 net_923:2 net_923:3 0.1411
6 net_923:3 net_923:4 0.2452
7 net_923:4 net_923:5 0.2723
8 net_923:5 net_923:6 0.2079
9 net_923:6 inst_1086:A1 0.2449
*END

*D_NET net_955 0.1408
*CONN
*I inst_1103:ZN O
*I inst_1135:A1 I
*CAP
1 inst_1103:ZN 0.0917
2 net_955:1 0.0227
3 inst_1135:A1 0.0264
*RES
2 inst_1103:ZN net_955:1 0.0174
3 net_955:1 inst_1135:A1 0.1906
*END

*D_NET net_1116 2.1121
*CONN
*I inst_561:ZN O
*I inst_1168:A1 I
*I inst_299:A I
*CAP
1 inst_561:ZN 0.0937
2 net_1116:1 0.3987
3 net_1116:2 0.0209
4 net_1116:3 0.1182
5 inst_1168:A1 0.1067
6 net_1116:4 0.5008
7 net_1116:5 0.2979
8 net_1116:6 0.3428
9 inst_299:A 0.2325
*RES
2 inst_561:ZN net_1116:1 0.4881
3 net_1116:1 net_1116:2 0.3672
4 net_1116:2 net_1116:3 0.4629
5 net_1116:3 inst_1168:A1 0.1157
6 net_1116:1 net_1116:4 0.2733
7 net_1116:4 net_1116:5 0.1266
8 net_1116:5 net_1116:6 0.3814
9 net_1116:6 inst_299:A 0.1363
*END

*D_NET net_548 2.8128
*CONN
*I inst_131:ZN O
*I inst_927:A2 I
*I inst_145:A I
*CAP
1 inst_131:ZN 0.3144
2 net_548:1 0.3676
3 net_548:2 0.1603
4 net_548:3 0.4423
5 net_548:4 0.1159
6 net_548:5 0.4527
7 inst_145:A 0.1465
8 net_548:6 0.4367
9 net_548:7 0.3452
10 inst_927:A2 0.0313
*RES
2 inst_131:ZN net_548:1 0.1463
3 net_548:1 net_548:2 0.4621
4 net_548:2 net_548:3 0.4065
5 net_548:3 net_548:4 0.0227
6 net_548:4 net_548:5 0.2236
7 net_548:5 inst_145:A 0.4114
8 net_548:2 net_548:6 0.1217
9 net_548:6 net_548:7 0.0111
10 net_548:7 inst_927:A2 0.1222
*END

*D_NET TAUNET_1631 2.0377
*CONN
*I inst_197:ZN O
*I TAUGATE_1631:A I
*CAP
1 inst_197:ZN 0.1692
2 TAUNET_1631:1 0.4978
3 TAUNET_1631:2 0.2563
4 TAUNET_1631:3 0.2595
5 TAUNET_1631:4 0.2603
6 TAUNET_1631:5 0.2874
7 TAUGATE_1631:A 0.3072
*RES
2 inst_197:ZN TAUNET_1631:1 0.2768
3 TAUNET_1631:1 TAUNET_1631:2 0.1679
4 TAUNET_1631:2 TAUNET_1631:3 0.2053
5 TAUNET_1631:3 TAUNET_1631:4 0.2140
6 TAUNET_1631:4 TAUNET_1631:5 0.3306
7 TAUNET_1631:5 TAUGATE_1631:A 0.1569
*END

*D_NET net_1431 3.1506
*CONN
*I inst_556:ZN O
*I inst_1303:A1 I
*I inst_390:B I
*CAP
1 inst_556:ZN 0.2138
2 net_1431:1 0.3806
3 net_1431:2 0.4946
4 net_1431:3 0.4608
5 net_1431:4 0.4692
6 net_1431:5 0.4766
7 inst_390:B 0.0589
8 net_1431:6 0.4748
9 net_1431:7 0.0806
10 inst_1303:A1 0.0407
*RES
2 inst_556:ZN net_1431:1 0.0962
3 net_1431:1 net_1431:2 0.2415
4 net_1431:2 net_1431:3 0.1750
5 net_1431:3 net_1431:4 0.4103
6 net_1431:4 net_1431:5 0.0845
7 net_1431:5 inst_390:B 0.1888
8 net_1431:1 net_1431:6 0.2069
9 net_1431:6 net_1431:7 0.0491
10 net_1431:7 inst_1303:A1 0.4137
*END

*D_NET n443gat 16.4869
*CONN
*P n443gat I
*I inst_632:A2 I
*I inst_752:A2 I
*I inst_754:A2 I
*I inst_532:A2 I
*I inst_641:A2 I
*I inst_704:A2 I
*I inst_607:A2 I
*I inst_750:A2 I
*I inst_563:A2 I
*I inst_573:A2 I
*I inst_701:A2 I
*I inst_622:A2 I
*I inst_618:A2 I
*I inst_680:A2 I
*I inst_674:A2 I
*I inst_591:A2 I
*CAP
1 n443gat 0.2987
2 n443gat:1 0.1831
3 n443gat:2 0.4110
4 n443gat:3 0.0191
5 inst_573:A2 0.3538
6 n443gat:4 0.5010
7 n443gat:5 0.3538
8 n443gat:6 0.4649
9 n443gat:7 0.0482
10 n443gat:8 0.1062
11 inst_752:A2 0.2963
12 n443gat:9 0.0470
13 n443gat:10 0.0745
14 n443gat:11 0.1738
15 inst_754:A2 0.4336
16 n443gat:12 0.4895
17 n443gat:13 0.4033
18 n443gat:14 0.2734
19 n443gat:15 0.3461
20 inst_532:A2 0.3729
21 n443gat:16 0.4484
22 n443gat:17 0.1379
23 n443gat:18 0.1139
24 inst_641:A2 0.0489
25 n443gat:19 0.2366
26 inst_704:A2 0.1100
27 n443gat:20 0.3328
28 n443gat:21 0.1906
29 n443gat:22 0.5003
30 n443gat:23 0.4347
31 n443gat:24 0.3044
32 inst_607:A2 0.1394
33 n443gat:25 0.3400
34 n443gat:26 0.2352
35 n443gat:27 0.3112
36 n443gat:28 0.1345
37 inst_750:A2 0.4134
38 n443gat:29 0.2343
39 n443gat:30 0.1106
40 n443gat:31 0.0283
41 inst_563:A2 0.2644
42 n443gat:32 0.2177
43 n443gat:33 0.0520
44 n443gat:34 0.1787
45 inst_632:A2 0.3277
46 n443gat:35 0.0500
47 n443gat:36 0.3450
48 n443gat:37 0.2552
49 n443gat:38 0.2397
50 inst_701:A2 0.3943
51 n443gat:39 0.3418
52 n443gat:40 0.0277
53 n443gat:41 0.2232
54 inst_622:A2 0.0700
55 n443gat:42 0.0955
56 inst_618:A2 0.0758
57 n443gat:43 0.0605
58 n443gat:44 0.1555
59 n443gat:45 0.4347
60 inst_680:A2 0.2976
61 n443gat:46 0.2983
62 n443gat:47 0.4269
63 n443gat:48 0.0493
64 n443gat:49 0.0341
65 inst_674:A2 0.3020
66 n443gat:50 0.0936
67 n443gat:51 0.3051
68 n443gat:52 0.1197
69 inst_591:A2 0.2956
*RES
2 n443gat n443gat:1 0.4300
3 n443gat:1 n443gat:2 0.3629
4 n443gat:2 n443gat:3 0.0787
5 n443gat:3 inst_573:A2 0.2007
6 n443gat:2 n443gat:4 0.4911
7 n443gat:4 n443gat:5 0.2002
8 n443gat:5 n443gat:6 0.2573
9 n443gat:6 n443gat:7 0.3761
10 n443gat:7 n443gat:8 0.0616
11 n443gat:8 inst_752:A2 0.4298
12 n443gat:5 n443gat:9 0.4556
13 n443gat:9 n443gat:10 0.1284
14 n443gat:10 n443gat:11 0.0036
15 n443gat:11 inst_754:A2 0.1731
16 n443gat:7 n443gat:12 0.0418
17 n443gat:12 n443gat:13 0.3671
18 n443gat:13 n443gat:14 0.3815
19 n443gat:14 n443gat:15 0.1458
20 n443gat:15 inst_532:A2 0.4915
21 n443gat:2 n443gat:16 0.0861
22 n443gat:16 n443gat:17 0.1477
23 n443gat:17 n443gat:18 0.4806
24 n443gat:18 inst_641:A2 0.3473
25 n443gat:4 n443gat:19 0.2818
26 n443gat:19 inst_704:A2 0.3290
27 n443gat:7 n443gat:20 0.0096
28 n443gat:20 n443gat:21 0.4963
29 n443gat:21 n443gat:22 0.2377
30 n443gat:22 n443gat:23 0.2571
31 n443gat:23 n443gat:24 0.3610
32 n443gat:24 inst_607:A2 0.0042
33 n443gat:14 n443gat:25 0.0741
34 n443gat:25 n443gat:26 0.4290
35 n443gat:26 n443gat:27 0.4891
36 n443gat:27 n443gat:28 0.0621
37 n443gat:28 inst_750:A2 0.2122
38 n443gat:8 n443gat:29 0.3395
39 n443gat:29 n443gat:30 0.4160
40 n443gat:30 n443gat:31 0.1311
41 n443gat:31 inst_563:A2 0.1702
42 n443gat:3 n443gat:32 0.2308
43 n443gat:32 n443gat:33 0.1825
44 n443gat:33 n443gat:34 0.4154
45 n443gat:34 inst_632:A2 0.4205
46 n443gat:14 n443gat:35 0.0450
47 n443gat:35 n443gat:36 0.3586
48 n443gat:36 n443gat:37 0.1804
49 n443gat:37 n443gat:38 0.2132
50 n443gat:38 inst_701:A2 0.3448
51 n443gat:1 n443gat:39 0.3825
52 n443gat:39 n443gat:40 0.4916
53 n443gat:40 n443gat:41 0.0258
54 n443gat:41 inst_622:A2 0.0722
55 n443gat:2 n443gat:42 0.0730
56 n443gat:42 inst_618:A2 0.2996
57 n443gat:13 n443gat:43 0.3531
58 n443gat:43 n443gat:44 0.0316
59 n443gat:44 n443gat:45 0.1823
60 n443gat:45 inst_680:A2 0.0755
61 n443gat:29 n443gat:46 0.3389
62 n443gat:46 n443gat:47 0.4000
63 n443gat:47 n443gat:48 0.0188
64 n443gat:48 n443gat:49 0.4709
65 n443gat:49 inst_674:A2 0.4204
66 n443gat:1 n443gat:50 0.2210
67 n443gat:50 n443gat:51 0.0970
68 n443gat:51 n443gat:52 0.2798
69 n443gat:52 inst_591:A2 0.3150
*END

*D_NET net_1339 1.2664
*CONN
*I inst_1587:ZN O
*I inst_1276:A2 I
*CAP
1 inst_1587:ZN 0.2108
2 net_1339:1 0.0161
3 net_1339:2 0.2047
4 net_1339:3 0.3729
5 net_1339:4 0.0610
6 inst_1276:A2 0.4010
*RES
2 inst_1587:ZN net_1339:1 0.2910
3 net_1339:1 net_1339:2 0.3768
4 net_1339:2 net_1339:3 0.3083
5 net_1339:3 net_1339:4 0.1250
6 net_1339:4 inst_1276:A2 0.3526
*END

*D_NET net_630 2.0663
*CONN
*I inst_151:ZN O
*I inst_166:A I
*I inst_966:A2 I
*CAP
1 inst_151:ZN 0.3144
2 net_630:1 0.0820
3 net_630:2 0.2174
4 net_630:3 0.3638
5 net_630:4 0.4097
6 inst_966:A2 0.2418
7 net_630:5 0.1278
8 inst_166:A 0.3093
*RES
2 inst_151:ZN net_630:1 0.4080
3 net_630:1 net_630:2 0.3118
4 net_630:2 net_630:3 0.4981
5 net_630:3 net_630:4 0.3134
6 net_630:4 inst_966:A2 0.4059
7 net_630:1 net_630:5 0.3342
8 net_630:5 inst_166:A 0.2150
*END

*D_NET net_1505 0.5049
*CONN
*I inst_1614:ZN O
*I inst_1345:A2 I
*CAP
1 inst_1614:ZN 0.1830
2 net_1505:1 0.0712
3 net_1505:2 0.0044
4 net_1505:3 0.1986
5 inst_1345:A2 0.0476
*RES
2 inst_1614:ZN net_1505:1 0.0521
3 net_1505:1 net_1505:2 0.0546
4 net_1505:2 net_1505:3 0.0043
5 net_1505:3 inst_1345:A2 0.2737
*END

*D_NET net_101 1.2711
*CONN
*I inst_506:ZN O
*I inst_523:A1 I
*CAP
1 inst_506:ZN 0.2677
2 net_101:1 0.1466
3 net_101:2 0.2784
4 net_101:3 0.2008
5 inst_523:A1 0.3776
*RES
2 inst_506:ZN net_101:1 0.2937
3 net_101:1 net_101:2 0.0093
4 net_101:2 net_101:3 0.2822
5 net_101:3 inst_523:A1 0.4311
*END

*D_NET TAUNET_824 2.6165
*CONN
*I TAUGATE_354:Z O
*I TAUGATE_824:A I
*I inst_1158:A2 I
*CAP
1 TAUGATE_354:Z 0.1138
2 TAUNET_824:1 0.3567
3 TAUNET_824:2 0.3242
4 TAUNET_824:3 0.2336
5 TAUNET_824:4 0.3863
6 TAUGATE_824:A 0.2365
7 TAUNET_824:5 0.4791
8 TAUNET_824:6 0.2417
9 inst_1158:A2 0.2444
*RES
2 TAUGATE_354:Z TAUNET_824:1 0.1037
3 TAUNET_824:1 TAUNET_824:2 0.3572
4 TAUNET_824:2 TAUNET_824:3 0.2211
5 TAUNET_824:3 TAUNET_824:4 0.2185
6 TAUNET_824:4 TAUGATE_824:A 0.2266
7 TAUNET_824:3 TAUNET_824:5 0.4262
8 TAUNET_824:5 TAUNET_824:6 0.3737
9 TAUNET_824:6 inst_1158:A2 0.3015
*END

*D_NET net_671 1.5079
*CONN
*I inst_1488:ZN O
*I inst_988:A2 I
*CAP
1 inst_1488:ZN 0.3035
2 net_671:1 0.0863
3 net_671:2 0.2362
4 net_671:3 0.1365
5 net_671:4 0.0277
6 net_671:5 0.4263
7 inst_988:A2 0.2912
*RES
2 inst_1488:ZN net_671:1 0.1111
3 net_671:1 net_671:2 0.3711
4 net_671:2 net_671:3 0.0512
5 net_671:3 net_671:4 0.1351
6 net_671:4 net_671:5 0.0984
7 net_671:5 inst_988:A2 0.0368
*END

*D_NET n4946gat 1.0413
*CONN
*I inst_280:ZN O
*P n4946gat O
*CAP
1 inst_280:ZN 0.1423
2 n4946gat:1 0.1146
3 n4946gat:2 0.3234
4 n4946gat 0.4610
*RES
2 inst_280:ZN n4946gat:1 0.4832
3 n4946gat:1 n4946gat:2 0.2776
4 n4946gat:2 n4946gat 0.3781
*END

*D_NET net_263 1.1921
*CONN
*I inst_799:ZN O
*I inst_812:A2 I
*CAP
1 inst_799:ZN 0.0185
2 net_263:1 0.1588
3 net_263:2 0.3738
4 net_263:3 0.4556
5 net_263:4 0.1835
6 inst_812:A2 0.0020
*RES
2 inst_799:ZN net_263:1 0.2614
3 net_263:1 net_263:2 0.3010
4 net_263:2 net_263:3 0.2164
5 net_263:3 net_263:4 0.4372
6 net_263:4 inst_812:A2 0.1158
*END

*D_NET net_838 1.1191
*CONN
*I inst_1053:ZN O
*I inst_1066:A2 I
*CAP
1 inst_1053:ZN 0.3810
2 net_838:1 0.1662
3 net_838:2 0.3178
4 inst_1066:A2 0.2541
*RES
2 inst_1053:ZN net_838:1 0.2497
3 net_838:1 net_838:2 0.4625
4 net_838:2 inst_1066:A2 0.2343
*END

*D_NET TAUNET_661 1.8620
*CONN
*I TAUGATE_865:Z O
*I TAUGATE_661:A I
*I inst_416:A I
*CAP
1 TAUGATE_865:Z 0.3461
2 TAUNET_661:1 0.4109
3 TAUNET_661:2 0.0945
4 TAUNET_661:3 0.2326
5 TAUGATE_661:A 0.0121
6 TAUNET_661:4 0.4527
7 inst_416:A 0.3131
*RES
2 TAUGATE_865:Z TAUNET_661:1 0.2674
3 TAUNET_661:1 TAUNET_661:2 0.2072
4 TAUNET_661:2 TAUNET_661:3 0.0414
5 TAUNET_661:3 TAUGATE_661:A 0.2455
6 TAUNET_661:1 TAUNET_661:4 0.4392
7 TAUNET_661:4 inst_416:A 0.4048
*END

*D_NET net_240 1.7566
*CONN
*I inst_789:ZN O
*I inst_803:A2 I
*CAP
1 inst_789:ZN 0.3283
2 net_240:1 0.4199
3 net_240:2 0.3736
4 net_240:3 0.3306
5 inst_803:A2 0.3042
*RES
2 inst_789:ZN net_240:1 0.1317
3 net_240:1 net_240:2 0.1481
4 net_240:2 net_240:3 0.2485
5 net_240:3 inst_803:A2 0.2201
*END

*D_NET net_1005 2.1088
*CONN
*I inst_256:ZN O
*I inst_272:A I
*I inst_1120:A1 I
*CAP
1 inst_256:ZN 0.3013
2 net_1005:1 0.0262
3 inst_1120:A1 0.3812
4 net_1005:2 0.2523
5 net_1005:3 0.0497
6 net_1005:4 0.4938
7 net_1005:5 0.3913
8 inst_272:A 0.2131
*RES
2 inst_256:ZN net_1005:1 0.0656
3 net_1005:1 inst_1120:A1 0.1550
4 net_1005:1 net_1005:2 0.3201
5 net_1005:2 net_1005:3 0.0320
6 net_1005:3 net_1005:4 0.2786
7 net_1005:4 net_1005:5 0.3378
8 net_1005:5 inst_272:A 0.4364
*END

*D_NET net_1332 2.1844
*CONN
*I TAUGATE_14:Z O
*I inst_1262:A2 I
*I inst_364:B I
*CAP
1 TAUGATE_14:Z 0.4527
2 net_1332:1 0.3641
3 net_1332:2 0.1740
4 net_1332:3 0.2701
5 inst_1262:A2 0.3351
6 net_1332:4 0.0751
7 net_1332:5 0.1227
8 net_1332:6 0.0294
9 net_1332:7 0.0059
10 inst_364:B 0.3552
*RES
2 TAUGATE_14:Z net_1332:1 0.4105
3 net_1332:1 net_1332:2 0.3004
4 net_1332:2 net_1332:3 0.3665
5 net_1332:3 inst_1262:A2 0.1341
6 net_1332:1 net_1332:4 0.3839
7 net_1332:4 net_1332:5 0.1840
8 net_1332:5 net_1332:6 0.4010
9 net_1332:6 net_1332:7 0.3573
10 net_1332:7 inst_364:B 0.4559
*END

*D_NET net_221 1.8802
*CONN
*I inst_1421:ZN O
*I inst_798:A2 I
*CAP
1 inst_1421:ZN 0.1715
2 net_221:1 0.3594
3 net_221:2 0.4902
4 net_221:3 0.4716
5 net_221:4 0.2112
6 inst_798:A2 0.1762
*RES
2 inst_1421:ZN net_221:1 0.1166
3 net_221:1 net_221:2 0.1660
4 net_221:2 net_221:3 0.2177
5 net_221:3 net_221:4 0.2908
6 net_221:4 inst_798:A2 0.3318
*END

*D_NET net_689 2.9824
*CONN
*I inst_595:ZN O
*I inst_987:A1 I
*I inst_179:B I
*CAP
1 inst_595:ZN 0.4080
2 net_689:1 0.1932
3 net_689:2 0.0675
4 net_689:3 0.0053
5 net_689:4 0.1459
6 net_689:5 0.0437
7 inst_179:B 0.4598
8 net_689:6 0.4518
9 net_689:7 0.0570
10 net_689:8 0.4909
11 net_689:9 0.0572
12 net_689:10 0.5008
13 inst_987:A1 0.1013
*RES
2 inst_595:ZN net_689:1 0.3838
3 net_689:1 net_689:2 0.2033
4 net_689:2 net_689:3 0.3263
5 net_689:3 net_689:4 0.4574
6 net_689:4 net_689:5 0.4683
7 net_689:5 inst_179:B 0.1543
8 net_689:2 net_689:6 0.2457
9 net_689:6 net_689:7 0.4210
10 net_689:7 net_689:8 0.2594
11 net_689:8 net_689:9 0.3565
12 net_689:9 net_689:10 0.4074
13 net_689:10 inst_987:A1 0.4309
*END

*D_NET TAUNET_1263 2.5914
*CONN
*I TAUGATE_1026:Z O
*I TAUGATE_1263:A I
*I inst_59:A I
*CAP
1 TAUGATE_1026:Z 0.2931
2 TAUNET_1263:1 0.2246
3 TAUNET_1263:2 0.3320
4 TAUNET_1263:3 0.3870
5 inst_59:A 0.3663
6 TAUNET_1263:4 0.1599
7 TAUNET_1263:5 0.3589
8 TAUGATE_1263:A 0.4697
*RES
2 TAUGATE_1026:Z TAUNET_1263:1 0.1512
3 TAUNET_1263:1 TAUNET_1263:2 0.1368
4 TAUNET_1263:2 TAUNET_1263:3 0.4493
5 TAUNET_1263:3 inst_59:A 0.4663
6 TAUNET_1263:2 TAUNET_1263:4 0.4844
7 TAUNET_1263:4 TAUNET_1263:5 0.0401
8 TAUNET_1263:5 TAUGATE_1263:A 0.2861
*END

*D_NET net_1064 1.7694
*CONN
*I inst_275:ZN O
*I inst_290:A I
*I inst_1148:A1 I
*CAP
1 inst_275:ZN 0.3075
2 net_1064:1 0.3908
3 inst_290:A 0.2921
4 net_1064:2 0.1515
5 net_1064:3 0.0492
6 net_1064:4 0.2707
7 net_1064:5 0.0711
8 inst_1148:A1 0.2365
*RES
2 inst_275:ZN net_1064:1 0.4162
3 net_1064:1 inst_290:A 0.1285
4 net_1064:1 net_1064:2 0.0021
5 net_1064:2 net_1064:3 0.2080
6 net_1064:3 net_1064:4 0.3529
7 net_1064:4 net_1064:5 0.4886
8 net_1064:5 inst_1148:A1 0.3648
*END

*D_NET net_901 1.5829
*CONN
*I inst_1076:ZN O
*I inst_1115:A1 I
*CAP
1 inst_1076:ZN 0.3187
2 net_901:1 0.0224
3 net_901:2 0.4026
4 net_901:3 0.2784
5 net_901:4 0.1803
6 net_901:5 0.0882
7 inst_1115:A1 0.2924
*RES
2 inst_1076:ZN net_901:1 0.4780
3 net_901:1 net_901:2 0.3510
4 net_901:2 net_901:3 0.1182
5 net_901:3 net_901:4 0.2614
6 net_901:4 net_901:5 0.1530
7 net_901:5 inst_1115:A1 0.2582
*END

*D_NET net_453 1.1301
*CONN
*I inst_881:ZN O
*I inst_896:A2 I
*CAP
1 inst_881:ZN 0.0762
2 net_453:1 0.3922
3 net_453:2 0.3950
4 inst_896:A2 0.2666
*RES
2 inst_881:ZN net_453:1 0.4255
3 net_453:1 net_453:2 0.4671
4 net_453:2 inst_896:A2 0.2972
*END

*D_NET net_1059 2.1171
*CONN
*I inst_1146:ZN O
*I inst_1181:A2 I
*CAP
1 inst_1146:ZN 0.4880
2 net_1059:1 0.3167
3 net_1059:2 0.3376
4 net_1059:3 0.1073
5 net_1059:4 0.3579
6 net_1059:5 0.1300
7 inst_1181:A2 0.3795
*RES
2 inst_1146:ZN net_1059:1 0.2362
3 net_1059:1 net_1059:2 0.1908
4 net_1059:2 net_1059:3 0.1996
5 net_1059:3 net_1059:4 0.3123
6 net_1059:4 net_1059:5 0.1251
7 net_1059:5 inst_1181:A2 0.0048
*END

*D_NET net_877 1.2973
*CONN
*I inst_1059:ZN O
*I inst_1072:A2 I
*I inst_239:B I
*CAP
1 inst_1059:ZN 0.0195
2 net_877:1 0.3700
3 inst_239:B 0.3260
4 net_877:2 0.4904
5 inst_1072:A2 0.0915
*RES
2 inst_1059:ZN net_877:1 0.3466
3 net_877:1 inst_239:B 0.4948
4 net_877:1 net_877:2 0.4619
5 net_877:2 inst_1072:A2 0.1065
*END

*D_NET n6270gat 0.7741
*CONN
*I inst_446:ZN O
*P n6270gat O
*CAP
1 inst_446:ZN 0.2576
2 n6270gat:1 0.2231
3 n6270gat 0.2934
*RES
2 inst_446:ZN n6270gat:1 0.0661
3 n6270gat:1 n6270gat 0.0281
*END

*D_NET net_408 0.7745
*CONN
*I inst_872:ZN O
*I inst_902:A1 I
*CAP
1 inst_872:ZN 0.2539
2 net_408:1 0.1980
3 inst_902:A1 0.3226
*RES
2 inst_872:ZN net_408:1 0.1282
3 net_408:1 inst_902:A1 0.2766
*END

*D_NET net_1260 3.3655
*CONN
*I inst_1220:ZN O
*I inst_1233:A1 I
*I inst_343:B I
*CAP
1 inst_1220:ZN 0.4267
2 net_1260:1 0.3295
3 net_1260:2 0.4724
4 net_1260:3 0.4631
5 net_1260:4 0.0407
6 net_1260:5 0.4130
7 inst_343:B 0.3462
8 net_1260:6 0.0346
9 net_1260:7 0.4333
10 net_1260:8 0.0645
11 inst_1233:A1 0.3416
*RES
2 inst_1220:ZN net_1260:1 0.0714
3 net_1260:1 net_1260:2 0.2110
4 net_1260:2 net_1260:3 0.2588
5 net_1260:3 net_1260:4 0.0339
6 net_1260:4 net_1260:5 0.0519
7 net_1260:5 inst_343:B 0.4874
8 net_1260:3 net_1260:6 0.4099
9 net_1260:6 net_1260:7 0.1540
10 net_1260:7 net_1260:8 0.0325
11 net_1260:8 inst_1233:A1 0.0924
*END

*D_NET net_1026 1.2932
*CONN
*I inst_1130:ZN O
*I inst_1141:A1 I
*CAP
1 inst_1130:ZN 0.1516
2 net_1026:1 0.4228
3 net_1026:2 0.1417
4 net_1026:3 0.3754
5 inst_1141:A1 0.2016
*RES
2 inst_1130:ZN net_1026:1 0.0068
3 net_1026:1 net_1026:2 0.2001
4 net_1026:2 net_1026:3 0.4220
5 net_1026:3 inst_1141:A1 0.4926
*END

*D_NET net_1492 2.3151
*CONN
*I inst_1324:ZN O
*I inst_1613:A I
*I inst_412:A I
*CAP
1 inst_1324:ZN 0.3810
2 net_1492:1 0.2042
3 net_1492:2 0.2030
4 net_1492:3 0.2656
5 inst_1613:A 0.4413
6 net_1492:4 0.4797
7 net_1492:5 0.0551
8 net_1492:6 0.1877
9 inst_412:A 0.0973
*RES
2 inst_1324:ZN net_1492:1 0.1336
3 net_1492:1 net_1492:2 0.4042
4 net_1492:2 net_1492:3 0.0451
5 net_1492:3 inst_1613:A 0.2391
6 net_1492:2 net_1492:4 0.4235
7 net_1492:4 net_1492:5 0.1903
8 net_1492:5 net_1492:6 0.2143
9 net_1492:6 inst_412:A 0.0701
*END

*D_NET net_1146 3.2843
*CONN
*I inst_296:ZN O
*I inst_1185:A2 I
*I inst_310:A I
*CAP
1 inst_296:ZN 0.4634
2 net_1146:1 0.2766
3 net_1146:2 0.3086
4 net_1146:3 0.2353
5 inst_1185:A2 0.4838
6 net_1146:4 0.3681
7 net_1146:5 0.4419
8 net_1146:6 0.1561
9 net_1146:7 0.1347
10 net_1146:8 0.0224
11 inst_310:A 0.3933
*RES
2 inst_296:ZN net_1146:1 0.0722
3 net_1146:1 net_1146:2 0.3539
4 net_1146:2 net_1146:3 0.3446
5 net_1146:3 inst_1185:A2 0.0192
6 net_1146:1 net_1146:4 0.2244
7 net_1146:4 net_1146:5 0.4154
8 net_1146:5 net_1146:6 0.1374
9 net_1146:6 net_1146:7 0.1713
10 net_1146:7 net_1146:8 0.2153
11 net_1146:8 inst_310:A 0.3119
*END

*D_NET net_288 0.5896
*CONN
*I inst_813:ZN O
*I inst_837:A1 I
*CAP
1 inst_813:ZN 0.3583
2 net_288:1 0.0071
3 inst_837:A1 0.2242
*RES
2 inst_813:ZN net_288:1 0.4834
3 net_288:1 inst_837:A1 0.4589
*END

*D_NET net_1090 1.7458
*CONN
*I inst_1158:ZN O
*I inst_1192:A1 I
*CAP
1 inst_1158:ZN 0.3264
2 net_1090:1 0.4721
3 net_1090:2 0.1185
4 net_1090:3 0.4585
5 inst_1192:A1 0.3703
*RES
2 inst_1158:ZN net_1090:1 0.0365
3 net_1090:1 net_1090:2 0.4409
4 net_1090:2 net_1090:3 0.4335
5 net_1090:3 inst_1192:A1 0.3158
*END

*D_NET net_1466 2.6083
*CONN
*I inst_1304:ZN O
*I inst_395:B I
*I inst_1318:A1 I
*CAP
1 inst_1304:ZN 0.4798
2 net_1466:1 0.1778
3 net_1466:2 0.3155
4 inst_1318:A1 0.4909
5 net_1466:3 0.1815
6 net_1466:4 0.2112
7 net_1466:5 0.3238
8 net_1466:6 0.1536
9 inst_395:B 0.2744
*RES
2 inst_1304:ZN net_1466:1 0.2285
3 net_1466:1 net_1466:2 0.2293
4 net_1466:2 inst_1318:A1 0.4514
5 net_1466:1 net_1466:3 0.3973
6 net_1466:3 net_1466:4 0.0682
7 net_1466:4 net_1466:5 0.0813
8 net_1466:5 net_1466:6 0.2235
9 net_1466:6 inst_395:B 0.0018
*END

*D_NET TAUNET_102 1.8273
*CONN
*I TAUGATE_1290:Z O
*I TAUGATE_102:A I
*CAP
1 TAUGATE_1290:Z 0.4580
2 TAUNET_102:1 0.4660
3 TAUNET_102:2 0.3296
4 TAUNET_102:3 0.2711
5 TAUNET_102:4 0.1177
6 TAUNET_102:5 0.1130
7 TAUGATE_102:A 0.0719
*RES
2 TAUGATE_1290:Z TAUNET_102:1 0.2913
3 TAUNET_102:1 TAUNET_102:2 0.3837
4 TAUNET_102:2 TAUNET_102:3 0.4308
5 TAUNET_102:3 TAUNET_102:4 0.4593
6 TAUNET_102:4 TAUNET_102:5 0.4578
7 TAUNET_102:5 TAUGATE_102:A 0.1666
*END

*D_NET net_1204 1.7192
*CONN
*I inst_1571:ZN O
*I inst_1218:A2 I
*CAP
1 inst_1571:ZN 0.2000
2 net_1204:1 0.3792
3 net_1204:2 0.3945
4 net_1204:3 0.1168
5 net_1204:4 0.0632
6 net_1204:5 0.3389
7 inst_1218:A2 0.2267
*RES
2 inst_1571:ZN net_1204:1 0.0022
3 net_1204:1 net_1204:2 0.3986
4 net_1204:2 net_1204:3 0.0342
5 net_1204:3 net_1204:4 0.1492
6 net_1204:4 net_1204:5 0.1342
7 net_1204:5 inst_1218:A2 0.2299
*END
