*SPEF "IEEE 1481-1998"
*DESIGN "changes"
*DATE "Tue Dec 02 20:34:41 2014"
*VENDOR "TAU 2015 Contest"
*PROGRAM "Benchmark Parasitic Generator"
*VERSION "0.0"
*DESIGN_FLOW "NETLIST_TYPE_VERILOG"
*DIVIDER /
*DELIMITER :
*BUS_DELIMITER [ ]
*T_UNIT 1 PS
*C_UNIT 1 FF
*R_UNIT 1 KOHM
*L_UNIT 1 UH

*D_NET TAUNET_9 1.7439
*CONN
*I inst_897:ZN O
*I TAUGATE_9:A I
*CAP
1 inst_897:ZN 0.2611
2 TAUNET_9:1 0.4098
3 TAUNET_9:2 0.5009
4 TAUNET_9:3 0.2843
5 TAUGATE_9:A 0.2878
*RES
2 inst_897:ZN TAUNET_9:1 0.1659
3 TAUNET_9:1 TAUNET_9:2 0.2742
4 TAUNET_9:2 TAUNET_9:3 0.3494
5 TAUNET_9:3 TAUGATE_9:A 0.1485
*END

*D_NET net_226 1.6938
*CONN
*I TAUGATE_7:Z O
*I inst_1424:A I
*I inst_65:B I
*CAP
1 TAUGATE_7:Z 0.2110
2 net_226:1 0.3070
3 net_226:2 0.3583
4 net_226:3 0.1395
5 net_226:4 0.0646
6 net_226:5 0.0794
7 inst_65:B 0.2161
8 net_226:6 0.2440
9 net_226:7 0.0332
10 inst_1424:A 0.0406
*RES
2 TAUGATE_7:Z net_226:1 0.1614
3 net_226:1 net_226:2 0.3312
4 net_226:2 net_226:3 0.3755
5 net_226:3 net_226:4 0.4644
6 net_226:4 net_226:5 0.4559
7 net_226:5 inst_65:B 0.4050
8 net_226:2 net_226:6 0.2732
9 net_226:6 net_226:7 0.0073
10 net_226:7 inst_1424:A 0.1308
*END

*D_NET TAUNET_5 1.8161
*CONN
*I inst_1084:ZN O
*I TAUGATE_5:A I
*CAP
1 inst_1084:ZN 0.2909
2 TAUNET_5:1 0.0740
3 TAUNET_5:2 0.4871
4 TAUNET_5:3 0.4951
5 TAUNET_5:4 0.4125
6 TAUGATE_5:A 0.0565
*RES
2 inst_1084:ZN TAUNET_5:1 0.1285
3 TAUNET_5:1 TAUNET_5:2 0.0292
4 TAUNET_5:2 TAUNET_5:3 0.2926
5 TAUNET_5:3 TAUNET_5:4 0.4507
6 TAUNET_5:4 TAUGATE_5:A 0.3356
*END

*D_NET TAUNET_8 1.9602
*CONN
*I inst_307:ZN O
*I TAUGATE_8:A I
*CAP
1 inst_307:ZN 0.3845
2 TAUNET_8:1 0.3056
3 TAUNET_8:2 0.3464
4 TAUNET_8:3 0.0305
5 TAUNET_8:4 0.2383
6 TAUNET_8:5 0.4020
7 TAUGATE_8:A 0.2529
*RES
2 inst_307:ZN TAUNET_8:1 0.2665
3 TAUNET_8:1 TAUNET_8:2 0.4354
4 TAUNET_8:2 TAUNET_8:3 0.1977
5 TAUNET_8:3 TAUNET_8:4 0.0788
6 TAUNET_8:4 TAUNET_8:5 0.3276
7 TAUNET_8:5 TAUGATE_8:A 0.3833
*END

*D_NET net_920 0.8670
*CONN
*I TAUGATE_5:Z O
*I inst_1099:A2 I
*CAP
1 TAUGATE_5:Z 0.0716
2 net_920:1 0.1922
3 net_920:2 0.2805
4 net_920:3 0.1322
5 inst_1099:A2 0.1905
*RES
2 TAUGATE_5:Z net_920:1 0.4017
3 net_920:1 net_920:2 0.4680
4 net_920:2 net_920:3 0.2976
5 net_920:3 inst_1099:A2 0.2331
*END

*D_NET TAUNET_6 1.3358
*CONN
*I inst_1004:ZN O
*I TAUGATE_6:A I
*CAP
1 inst_1004:ZN 0.3943
2 TAUNET_6:1 0.1955
3 TAUNET_6:2 0.1868
4 TAUNET_6:3 0.4889
5 TAUGATE_6:A 0.0703
*RES
2 inst_1004:ZN TAUNET_6:1 0.3298
3 TAUNET_6:1 TAUNET_6:2 0.4131
4 TAUNET_6:2 TAUNET_6:3 0.3310
5 TAUNET_6:3 TAUGATE_6:A 0.2621
*END

*D_NET net_751 2.7698
*CONN
*I TAUGATE_6:Z O
*I inst_1016:A2 I
*I inst_202:B I
*CAP
1 TAUGATE_6:Z 0.1808
2 net_751:1 0.3990
3 inst_202:B 0.4035
4 net_751:2 0.3591
5 net_751:3 0.2780
6 net_751:4 0.2022
7 net_751:5 0.1593
8 net_751:6 0.4382
9 inst_1016:A2 0.3498
*RES
2 TAUGATE_6:Z net_751:1 0.0219
3 net_751:1 inst_202:B 0.0830
4 net_751:1 net_751:2 0.4055
5 net_751:2 net_751:3 0.4519
6 net_751:3 net_751:4 0.4658
7 net_751:4 net_751:5 0.3690
8 net_751:5 net_751:6 0.4019
9 net_751:6 inst_1016:A2 0.0632
*END

*D_NET TAUNET_7 2.0111
*CONN
*I inst_46:ZN O
*I TAUGATE_7:A I
*CAP
1 inst_46:ZN 0.4700
2 TAUNET_7:1 0.3545
3 TAUNET_7:2 0.1033
4 TAUNET_7:3 0.4316
5 TAUNET_7:4 0.1782
6 TAUGATE_7:A 0.4734
*RES
2 inst_46:ZN TAUNET_7:1 0.0376
3 TAUNET_7:1 TAUNET_7:2 0.0972
4 TAUNET_7:2 TAUNET_7:3 0.3594
5 TAUNET_7:3 TAUNET_7:4 0.0525
6 TAUNET_7:4 TAUGATE_7:A 0.3248
*END

*D_NET net_1164 2.5362
*CONN
*I TAUGATE_8:Z O
*I inst_1191:A2 I
*I inst_316:A I
*CAP
1 TAUGATE_8:Z 0.1267
2 net_1164:1 0.2434
3 net_1164:2 0.3726
4 net_1164:3 0.2980
5 net_1164:4 0.2454
6 inst_316:A 0.4670
7 net_1164:5 0.3699
8 inst_1191:A2 0.4131
*RES
2 TAUGATE_8:Z net_1164:1 0.1921
3 net_1164:1 net_1164:2 0.1376
4 net_1164:2 net_1164:3 0.4443
5 net_1164:3 net_1164:4 0.1288
6 net_1164:4 inst_316:A 0.3022
7 net_1164:1 net_1164:5 0.4004
8 net_1164:5 inst_1191:A2 0.4814
*END

*D_NET net_498 1.6808
*CONN
*I TAUGATE_9:Z O
*I inst_131:B I
*I inst_911:A1 I
*CAP
1 TAUGATE_9:Z 0.3915
2 net_498:1 0.3089
3 inst_131:B 0.0253
4 net_498:2 0.3147
5 net_498:3 0.2761
6 inst_911:A1 0.3643
*RES
2 TAUGATE_9:Z net_498:1 0.3105
3 net_498:1 inst_131:B 0.1881
4 net_498:1 net_498:2 0.2288
5 net_498:2 net_498:3 0.0666
6 net_498:3 inst_911:A1 0.3854
*END

