*SPEF "IEEE 1481-1998"
*DESIGN "changes"
*DATE "Tue Dec 02 20:34:41 2014"
*VENDOR "TAU 2015 Contest"
*PROGRAM "Benchmark Parasitic Generator"
*VERSION "0.0"
*DESIGN_FLOW "NETLIST_TYPE_VERILOG"
*DIVIDER /
*DELIMITER :
*BUS_DELIMITER [ ]
*T_UNIT 1 PS
*C_UNIT 1 FF
*R_UNIT 1 KOHM
*L_UNIT 1 UH

*D_NET net_1081 3.0173
*CONN
*I TAUGATE_19:Z O
*I inst_1154:A2 I
*I inst_294:A I
*CAP
1 TAUGATE_19:Z 0.2611
2 net_1081:1 0.4098
3 net_1081:2 0.5009
4 net_1081:3 0.2843
5 inst_1154:A2 0.2878
6 net_1081:4 0.4685
7 net_1081:5 0.3070
8 net_1081:6 0.3583
9 inst_294:A 0.1395
*RES
2 TAUGATE_19:Z net_1081:1 0.1659
3 net_1081:1 net_1081:2 0.2742
4 net_1081:2 net_1081:3 0.3494
5 net_1081:3 inst_1154:A2 0.1485
6 net_1081:3 net_1081:4 0.0646
7 net_1081:4 net_1081:5 0.0794
8 net_1081:5 net_1081:6 0.2161
9 net_1081:6 inst_294:A 0.1614
*END

*D_NET TAUNET_13 1.8183
*CONN
*P n494gat I
*I TAUGATE_13:A I
*CAP
1 n494gat 0.3755
2 TAUNET_13:1 0.4559
3 TAUNET_13:2 0.4050
4 TAUNET_13:3 0.0154
5 TAUNET_13:4 0.1670
6 TAUNET_13:5 0.1555
7 TAUGATE_13:A 0.2440
*RES
2 n494gat TAUNET_13:1 0.0332
3 TAUNET_13:1 TAUNET_13:2 0.0406
4 TAUNET_13:2 TAUNET_13:3 0.2732
5 TAUNET_13:3 TAUNET_13:4 0.0073
6 TAUNET_13:4 TAUNET_13:5 0.1308
7 TAUNET_13:5 TAUGATE_13:A 0.1374
*END

*D_NET TAUNET_12 1.3529
*CONN
*I inst_1081:ZN O
*I TAUGATE_12:A I
*CAP
1 inst_1081:ZN 0.3706
2 TAUNET_12:1 0.4871
3 TAUGATE_12:A 0.4951
*RES
2 inst_1081:ZN TAUNET_12:1 0.4125
3 TAUNET_12:1 TAUGATE_12:A 0.0565
*END

*D_NET net_1537 1.5997
*CONN
*I TAUGATE_37:Z O
*I inst_1353:A2 I
*CAP
1 TAUGATE_37:Z 0.0292
2 net_1537:1 0.4507
3 net_1537:2 0.3356
4 net_1537:3 0.3995
5 inst_1353:A2 0.3845
*RES
2 TAUGATE_37:Z net_1537:1 0.4708
3 net_1537:1 net_1537:2 0.3056
4 net_1537:2 net_1537:3 0.3464
5 net_1537:3 inst_1353:A2 0.0305
*END

*D_NET net_1244 1.9835
*CONN
*I TAUGATE_11:Z O
*I inst_340:A I
*I inst_1222:A2 I
*CAP
1 TAUGATE_11:Z 0.4020
2 net_1244:1 0.2665
3 net_1244:2 0.4354
4 net_1244:3 0.1977
5 inst_340:A 0.0788
6 net_1244:4 0.2805
7 net_1244:5 0.1322
8 inst_1222:A2 0.1905
*RES
2 TAUGATE_11:Z net_1244:1 0.3276
3 net_1244:1 net_1244:2 0.3833
4 net_1244:2 net_1244:3 0.3292
5 net_1244:3 inst_340:A 0.0716
6 net_1244:2 net_1244:4 0.4017
7 net_1244:4 net_1244:5 0.4680
8 net_1244:5 inst_1222:A2 0.2976
*END

*D_NET net_1358 1.4553
*CONN
*I TAUGATE_54:Z O
*I inst_378:B I
*CAP
1 TAUGATE_54:Z 0.2927
2 net_1358:1 0.2211
3 net_1358:2 0.1955
4 net_1358:3 0.1868
5 net_1358:4 0.4889
6 inst_378:B 0.0703
*RES
2 TAUGATE_54:Z net_1358:1 0.3298
3 net_1358:1 net_1358:2 0.4131
4 net_1358:2 net_1358:3 0.3310
5 net_1358:3 net_1358:4 0.2621
6 net_1358:4 inst_378:B 0.4792
*END

*D_NET net_1068 3.6029
*CONN
*I TAUGATE_47:Z O
*I inst_295:A I
*I inst_1548:A I
*CAP
1 TAUGATE_47:Z 0.0717
2 net_1068:1 0.4035
3 net_1068:2 0.0219
4 net_1068:3 0.0830
5 net_1068:4 0.4539
6 inst_295:A 0.1250
7 net_1068:5 0.3498
8 net_1068:6 0.4055
9 net_1068:7 0.4519
10 net_1068:8 0.4658
11 net_1068:9 0.3690
12 inst_1548:A 0.4019
*RES
2 TAUGATE_47:Z net_1068:1 0.3196
3 net_1068:1 net_1068:2 0.4976
4 net_1068:2 net_1068:3 0.3591
5 net_1068:3 net_1068:4 0.2780
6 net_1068:4 inst_295:A 0.2022
7 net_1068:1 net_1068:5 0.0632
8 net_1068:5 net_1068:6 0.2503
9 net_1068:6 net_1068:7 0.4700
10 net_1068:7 net_1068:8 0.3789
11 net_1068:8 net_1068:9 0.3545
12 net_1068:9 inst_1548:A 0.1033
*END

*D_NET TAUNET_35 1.3094
*CONN
*I inst_383:ZN O
*I TAUGATE_35:A I
*CAP
1 inst_383:ZN 0.1782
2 TAUNET_35:1 0.0376
3 TAUNET_35:2 0.0972
4 TAUNET_35:3 0.3594
5 TAUNET_35:4 0.0525
6 TAUNET_35:5 0.3248
7 TAUGATE_35:A 0.2597
*RES
2 inst_383:ZN TAUNET_35:1 0.1267
3 TAUNET_35:1 TAUNET_35:2 0.3840
4 TAUNET_35:2 TAUNET_35:3 0.2434
5 TAUNET_35:3 TAUNET_35:4 0.3726
6 TAUNET_35:4 TAUNET_35:5 0.2980
7 TAUNET_35:5 TAUGATE_35:A 0.2454
*END

*D_NET net_532 1.9284
*CONN
*I TAUGATE_34:Z O
*I inst_135:B I
*I inst_924:A1 I
*CAP
1 TAUGATE_34:Z 0.1921
2 net_532:1 0.4443
3 net_532:2 0.1288
4 inst_924:A1 0.3022
5 net_532:3 0.0282
6 net_532:4 0.3089
7 net_532:5 0.0253
8 net_532:6 0.3105
9 inst_135:B 0.1881
*RES
2 TAUGATE_34:Z net_532:1 0.1405
3 net_532:1 net_532:2 0.0668
4 net_532:2 inst_924:A1 0.3699
5 net_532:1 net_532:3 0.2034
6 net_532:3 net_532:4 0.1592
7 net_532:4 net_532:5 0.3147
8 net_532:5 net_532:6 0.2761
9 net_532:6 inst_135:B 0.3643
*END

*D_NET net_934 2.0181
*CONN
*I TAUGATE_50:Z O
*I inst_256:A I
*I inst_1527:A I
*CAP
1 TAUGATE_50:Z 0.0666
2 net_934:1 0.3580
3 net_934:2 0.3774
4 net_934:3 0.2731
5 net_934:4 0.1525
6 inst_256:A 0.0518
7 net_934:5 0.2239
8 net_934:6 0.0917
9 inst_1527:A 0.4230
*RES
2 TAUGATE_50:Z net_934:1 0.2548
3 net_934:1 net_934:2 0.2154
4 net_934:2 net_934:3 0.4921
5 net_934:3 net_934:4 0.1648
6 net_934:4 inst_256:A 0.1855
7 net_934:4 net_934:5 0.1494
8 net_934:5 net_934:6 0.3290
9 net_934:6 inst_1527:A 0.1620
*END

*D_NET TAUNET_46 1.1549
*CONN
*I inst_878:ZN O
*I TAUGATE_46:A I
*CAP
1 inst_878:ZN 0.2883
2 TAUNET_46:1 0.4381
3 TAUNET_46:2 0.3484
4 TAUGATE_46:A 0.0801
*RES
2 inst_878:ZN TAUNET_46:1 0.1392
3 TAUNET_46:1 TAUNET_46:2 0.1891
4 TAUNET_46:2 TAUGATE_46:A 0.0464
*END

*D_NET net_1441 1.0649
*CONN
*I TAUGATE_36:Z O
*I inst_1324:A2 I
*CAP
1 TAUGATE_36:Z 0.0279
2 net_1441:1 0.0649
3 net_1441:2 0.0510
4 net_1441:3 0.1600
5 net_1441:4 0.1748
6 net_1441:5 0.4787
7 inst_1324:A2 0.1076
*RES
2 TAUGATE_36:Z net_1441:1 0.4606
3 net_1441:1 net_1441:2 0.3388
4 net_1441:2 net_1441:3 0.4657
5 net_1441:3 net_1441:4 0.3595
6 net_1441:4 net_1441:5 0.2471
7 net_1441:5 inst_1324:A2 0.0832
*END

*D_NET TAUNET_24 0.8209
*CONN
*I inst_611:ZN O
*I TAUGATE_24:A I
*CAP
1 inst_611:ZN 0.3736
2 TAUNET_24:1 0.3644
3 TAUGATE_24:A 0.0829
*RES
2 inst_611:ZN TAUNET_24:1 0.1977
3 TAUNET_24:1 TAUGATE_24:A 0.4694
*END

*D_NET TAUNET_16 2.0853
*CONN
*I inst_956:ZN O
*I TAUGATE_16:A I
*CAP
1 inst_956:ZN 0.3882
2 TAUNET_16:1 0.0413
3 TAUNET_16:2 0.4651
4 TAUNET_16:3 0.4065
5 TAUNET_16:4 0.3164
6 TAUNET_16:5 0.3513
7 TAUGATE_16:A 0.1165
*RES
2 inst_956:ZN TAUNET_16:1 0.0986
3 TAUNET_16:1 TAUNET_16:2 0.2243
4 TAUNET_16:2 TAUNET_16:3 0.1286
5 TAUNET_16:3 TAUNET_16:4 0.4269
6 TAUNET_16:4 TAUNET_16:5 0.2482
7 TAUNET_16:5 TAUGATE_16:A 0.2195
*END

*D_NET net_340 2.3276
*CONN
*I TAUGATE_25:Z O
*I inst_835:A2 I
*I inst_83:B I
*CAP
1 TAUGATE_25:Z 0.4091
2 net_340:1 0.3587
3 net_340:2 0.1869
4 net_340:3 0.4974
5 inst_835:A2 0.3047
6 net_340:4 0.2763
7 inst_83:B 0.2945
*RES
2 TAUGATE_25:Z net_340:1 0.1200
3 net_340:1 net_340:2 0.4969
4 net_340:2 net_340:3 0.1210
5 net_340:3 inst_835:A2 0.1733
6 net_340:1 net_340:4 0.3177
7 net_340:4 inst_83:B 0.2101
*END

*D_NET TAUNET_31 1.4286
*CONN
*I inst_1106:ZN O
*I TAUGATE_31:A I
*CAP
1 inst_1106:ZN 0.2046
2 TAUNET_31:1 0.1317
3 TAUNET_31:2 0.3617
4 TAUNET_31:3 0.0856
5 TAUNET_31:4 0.3629
6 TAUGATE_31:A 0.2821
*RES
2 inst_1106:ZN TAUNET_31:1 0.3900
3 TAUNET_31:1 TAUNET_31:2 0.0557
4 TAUNET_31:2 TAUNET_31:3 0.1253
5 TAUNET_31:3 TAUNET_31:4 0.2716
6 TAUNET_31:4 TAUGATE_31:A 0.3735
*END

*D_NET net_627 3.1644
*CONN
*I TAUGATE_51:Z O
*I inst_167:A I
*I inst_965:A2 I
*CAP
1 TAUGATE_51:Z 0.3323
2 net_627:1 0.0362
3 net_627:2 0.4966
4 net_627:3 0.4101
5 inst_167:A 0.2702
6 net_627:4 0.3090
7 net_627:5 0.3972
8 net_627:6 0.4228
9 net_627:7 0.2443
10 inst_965:A2 0.2458
*RES
2 TAUGATE_51:Z net_627:1 0.2135
3 net_627:1 net_627:2 0.0419
4 net_627:2 net_627:3 0.2773
5 net_627:3 inst_167:A 0.0903
6 net_627:1 net_627:4 0.3734
7 net_627:4 net_627:5 0.1567
8 net_627:5 net_627:6 0.1247
9 net_627:6 net_627:7 0.2439
10 net_627:7 inst_965:A2 0.2588
*END

*D_NET TAUNET_25 0.9945
*CONN
*I inst_68:ZN O
*I TAUGATE_25:A I
*CAP
1 inst_68:ZN 0.3528
2 TAUNET_25:1 0.4436
3 TAUGATE_25:A 0.1981
*RES
2 inst_68:ZN TAUNET_25:1 0.3275
3 TAUNET_25:1 TAUGATE_25:A 0.0169
*END

*D_NET TAUNET_27 1.2825
*CONN
*I inst_725:ZN O
*I TAUGATE_27:A I
*CAP
1 inst_725:ZN 0.4684
2 TAUNET_27:1 0.0579
3 TAUNET_27:2 0.0423
4 TAUNET_27:3 0.2861
5 TAUGATE_27:A 0.4278
*RES
2 inst_725:ZN TAUNET_27:1 0.3875
3 TAUNET_27:1 TAUNET_27:2 0.4796
4 TAUNET_27:2 TAUNET_27:3 0.3740
5 TAUNET_27:3 TAUGATE_27:A 0.1554
*END

*D_NET net_628 3.4590
*CONN
*I TAUGATE_16:Z O
*I inst_167:B I
*I inst_965:A1 I
*CAP
1 TAUGATE_16:Z 0.4380
2 net_628:1 0.4990
3 net_628:2 0.2134
4 net_628:3 0.1115
5 net_628:4 0.4947
6 net_628:5 0.3666
7 inst_167:B 0.2854
8 net_628:6 0.1531
9 net_628:7 0.3886
10 net_628:8 0.2618
11 inst_965:A1 0.2468
*RES
2 TAUGATE_16:Z net_628:1 0.4464
3 net_628:1 net_628:2 0.2438
4 net_628:2 net_628:3 0.2969
5 net_628:3 net_628:4 0.3091
6 net_628:4 net_628:5 0.5006
7 net_628:5 inst_167:B 0.2264
8 net_628:5 net_628:6 0.4002
9 net_628:6 net_628:7 0.3652
10 net_628:7 net_628:8 0.1857
11 net_628:8 inst_965:A1 0.0562
*END

*D_NET TAUNET_28 1.1318
*CONN
*I inst_197:ZN O
*I TAUGATE_28:A I
*CAP
1 inst_197:ZN 0.4386
2 TAUNET_28:1 0.0199
3 TAUNET_28:2 0.4145
4 TAUNET_28:3 0.1459
5 TAUGATE_28:A 0.1130
*RES
2 inst_197:ZN TAUNET_28:1 0.1026
3 TAUNET_28:1 TAUNET_28:2 0.1939
4 TAUNET_28:2 TAUNET_28:3 0.1095
5 TAUNET_28:3 TAUGATE_28:A 0.0212
*END

*D_NET TAUNET_57 1.6478
*CONN
*I inst_379:ZN O
*I TAUGATE_57:A I
*CAP
1 inst_379:ZN 0.2190
2 TAUNET_57:1 0.1138
3 TAUNET_57:2 0.4033
4 TAUNET_57:3 0.3663
5 TAUNET_57:4 0.2540
6 TAUNET_57:5 0.0526
7 TAUGATE_57:A 0.2388
*RES
2 inst_379:ZN TAUNET_57:1 0.1787
3 TAUNET_57:1 TAUNET_57:2 0.3603
4 TAUNET_57:2 TAUNET_57:3 0.0603
5 TAUNET_57:3 TAUNET_57:4 0.0863
6 TAUNET_57:4 TAUNET_57:5 0.3102
7 TAUNET_57:5 TAUGATE_57:A 0.1239
*END

*D_NET net_165 1.6234
*CONN
*I TAUGATE_52:Z O
*I inst_523:A2 I
*CAP
1 TAUGATE_52:Z 0.0055
2 net_165:1 0.2412
3 net_165:2 0.3995
4 net_165:3 0.4441
5 net_165:4 0.4218
6 net_165:5 0.0848
7 inst_523:A2 0.0266
*RES
2 TAUGATE_52:Z net_165:1 0.0274
3 net_165:1 net_165:2 0.4218
4 net_165:2 net_165:3 0.2061
5 net_165:3 net_165:4 0.2110
6 net_165:4 net_165:5 0.4583
7 net_165:5 inst_523:A2 0.3985
*END

*D_NET TAUNET_37 1.9898
*CONN
*I inst_1618:ZN O
*I TAUGATE_37:A I
*CAP
1 inst_1618:ZN 0.0725
2 TAUNET_37:1 0.3124
3 TAUNET_37:2 0.3685
4 TAUNET_37:3 0.4317
5 TAUNET_37:4 0.1801
6 TAUNET_37:5 0.2826
7 TAUGATE_37:A 0.3420
*RES
2 inst_1618:ZN TAUNET_37:1 0.0965
3 TAUNET_37:1 TAUNET_37:2 0.2555
4 TAUNET_37:2 TAUNET_37:3 0.1304
5 TAUNET_37:3 TAUNET_37:4 0.3675
6 TAUNET_37:4 TAUNET_37:5 0.4634
7 TAUNET_37:5 TAUGATE_37:A 0.2869
*END

*D_NET TAUNET_32 0.5511
*CONN
*I inst_1287:ZN O
*I TAUGATE_32:A I
*CAP
1 inst_1287:ZN 0.1182
2 TAUNET_32:1 0.0608
3 TAUGATE_32:A 0.3721
*RES
2 inst_1287:ZN TAUNET_32:1 0.4648
3 TAUNET_32:1 TAUGATE_32:A 0.2376
*END

*D_NET net_1051 1.2804
*CONN
*I TAUGATE_39:Z O
*I inst_291:A I
*I inst_1547:A I
*CAP
1 TAUGATE_39:Z 0.3081
2 net_1051:1 0.0264
3 net_1051:2 0.2502
4 inst_291:A 0.2506
5 net_1051:3 0.2747
6 inst_1547:A 0.1704
*RES
2 TAUGATE_39:Z net_1051:1 0.4486
3 net_1051:1 net_1051:2 0.0641
4 net_1051:2 inst_291:A 0.0138
5 net_1051:1 net_1051:3 0.2303
6 net_1051:3 inst_1547:A 0.0121
*END

*D_NET TAUNET_38 0.6221
*CONN
*I inst_772:ZN O
*I TAUGATE_38:A I
*CAP
1 inst_772:ZN 0.0267
2 TAUNET_38:1 0.1079
3 TAUNET_38:2 0.3621
4 TAUGATE_38:A 0.1254
*RES
2 inst_772:ZN TAUNET_38:1 0.3490
3 TAUNET_38:1 TAUNET_38:2 0.4751
4 TAUNET_38:2 TAUGATE_38:A 0.3195
*END

*D_NET net_821 1.2894
*CONN
*I TAUGATE_10:Z O
*I inst_232:B I
*CAP
1 TAUGATE_10:Z 0.2505
2 net_821:1 0.3990
3 net_821:2 0.0185
4 net_821:3 0.3777
5 inst_232:B 0.2437
*RES
2 TAUGATE_10:Z net_821:1 0.3641
3 net_821:1 net_821:2 0.1411
4 net_821:2 net_821:3 0.2452
5 net_821:3 inst_232:B 0.2723
*END

*D_NET TAUNET_40 0.3445
*CONN
*I inst_1454:ZN O
*I TAUGATE_40:A I
*CAP
1 inst_1454:ZN 0.2449
2 TAUNET_40:1 0.0917
3 TAUGATE_40:A 0.0078
*RES
2 inst_1454:ZN TAUNET_40:1 0.0227
3 TAUNET_40:1 TAUGATE_40:A 0.0264
*END

*D_NET TAUNET_20 0.9773
*CONN
*I inst_773:ZN O
*I TAUGATE_20:A I
*CAP
1 inst_773:ZN 0.1906
2 TAUNET_20:1 0.0937
3 TAUNET_20:2 0.2944
4 TAUGATE_20:A 0.3987
*RES
2 inst_773:ZN TAUNET_20:1 0.0209
3 TAUNET_20:1 TAUNET_20:2 0.1182
4 TAUNET_20:2 TAUGATE_20:A 0.1067
*END

*D_NET net_264 3.7134
*CONN
*I TAUGATE_48:Z O
*I inst_800:A1 I
*I inst_65:A I
*CAP
1 TAUGATE_48:Z 0.3672
2 net_264:1 0.1157
3 net_264:2 0.1901
4 net_264:3 0.2138
5 net_264:4 0.5008
6 net_264:5 0.2979
7 inst_65:A 0.3428
8 net_264:6 0.3676
9 net_264:7 0.1603
10 net_264:8 0.4423
11 net_264:9 0.1159
12 net_264:10 0.4527
13 inst_800:A1 0.1465
*RES
2 TAUGATE_48:Z net_264:1 0.2325
3 net_264:1 net_264:2 0.2733
4 net_264:2 net_264:3 0.1266
5 net_264:3 net_264:4 0.3814
6 net_264:4 net_264:5 0.1363
7 net_264:5 inst_65:A 0.3277
8 net_264:4 net_264:6 0.1463
9 net_264:6 net_264:7 0.4621
10 net_264:7 net_264:8 0.4065
11 net_264:8 net_264:9 0.0227
12 net_264:9 net_264:10 0.2236
13 net_264:10 inst_800:A1 0.4114
*END

*D_NET TAUNET_14 0.9678
*CONN
*I inst_1250:ZN O
*I TAUGATE_14:A I
*CAP
1 inst_1250:ZN 0.1546
2 TAUNET_14:1 0.4367
3 TAUNET_14:2 0.3452
4 TAUGATE_14:A 0.0313
*RES
2 inst_1250:ZN TAUNET_14:1 0.1217
3 TAUNET_14:1 TAUNET_14:2 0.0111
4 TAUNET_14:2 TAUGATE_14:A 0.1222
*END

*D_NET net_426 2.0377
*CONN
*I TAUGATE_46:Z O
*I inst_907:A1 I
*CAP
1 TAUGATE_46:Z 0.1692
2 net_426:1 0.4978
3 net_426:2 0.2563
4 net_426:3 0.2595
5 net_426:4 0.2603
6 net_426:5 0.2874
7 inst_907:A1 0.3072
*RES
2 TAUGATE_46:Z net_426:1 0.2768
3 net_426:1 net_426:2 0.1679
4 net_426:2 net_426:3 0.2053
5 net_426:3 net_426:4 0.2140
6 net_426:4 net_426:5 0.3306
7 net_426:5 inst_907:A1 0.1569
*END

*D_NET n494gat 16.1017
*CONN
*I TAUGATE_13:Z O
*I inst_657:A2 I
*I inst_571:A2 I
*I inst_679:A2 I
*I inst_749:A2 I
*I inst_718:A2 I
*I inst_550:A2 I
*I inst_616:A2 I
*I inst_529:A2 I
*I inst_585:A2 I
*I inst_744:A2 I
*I inst_738:A2 I
*I inst_719:A2 I
*I inst_686:A2 I
*I inst_755:A2 I
*I inst_757:A2 I
*I inst_564:A2 I
*CAP
1 TAUGATE_13:Z 0.2138
2 n494gat:1 0.3806
3 n494gat:2 0.4946
4 n494gat:3 0.4608
5 n494gat:4 0.4692
6 n494gat:5 0.4766
7 inst_585:A2 0.0589
8 n494gat:6 0.4748
9 n494gat:7 0.0806
10 inst_571:A2 0.0407
11 n494gat:8 0.1831
12 n494gat:9 0.4110
13 n494gat:10 0.0191
14 inst_679:A2 0.3538
15 n494gat:11 0.5010
16 n494gat:12 0.3538
17 n494gat:13 0.4649
18 n494gat:14 0.0482
19 n494gat:15 0.1062
20 inst_749:A2 0.2963
21 n494gat:16 0.0470
22 n494gat:17 0.0745
23 n494gat:18 0.1738
24 inst_718:A2 0.4336
25 n494gat:19 0.4033
26 n494gat:20 0.2734
27 n494gat:21 0.3461
28 n494gat:22 0.3729
29 n494gat:23 0.0418
30 inst_550:A2 0.3671
31 n494gat:24 0.0489
32 n494gat:25 0.0861
33 inst_616:A2 0.1477
34 n494gat:26 0.1100
35 n494gat:27 0.2818
36 n494gat:28 0.3290
37 inst_529:A2 0.1592
38 n494gat:29 0.0096
39 n494gat:30 0.4963
40 inst_657:A2 0.2377
41 n494gat:31 0.3400
42 n494gat:32 0.2352
43 n494gat:33 0.3112
44 n494gat:34 0.1345
45 inst_744:A2 0.4134
46 n494gat:35 0.2112
47 n494gat:36 0.2343
48 inst_738:A2 0.1106
49 n494gat:37 0.0535
50 n494gat:38 0.0383
51 inst_719:A2 0.2939
52 n494gat:39 0.1825
53 n494gat:40 0.4154
54 n494gat:41 0.4205
55 inst_686:A2 0.1921
56 n494gat:42 0.0450
57 n494gat:43 0.3586
58 n494gat:44 0.1804
59 n494gat:45 0.2132
60 inst_755:A2 0.3448
61 n494gat:46 0.3825
62 inst_757:A2 0.4916
63 n494gat:47 0.0955
64 inst_564:A2 0.0758
*RES
2 TAUGATE_13:Z n494gat:1 0.0962
3 n494gat:1 n494gat:2 0.2415
4 n494gat:2 n494gat:3 0.1750
5 n494gat:3 n494gat:4 0.4103
6 n494gat:4 n494gat:5 0.0845
7 n494gat:5 inst_585:A2 0.1888
8 n494gat:1 n494gat:6 0.2069
9 n494gat:6 n494gat:7 0.0491
10 n494gat:7 inst_571:A2 0.4137
11 n494gat:5 n494gat:8 0.4300
12 n494gat:8 n494gat:9 0.3629
13 n494gat:9 n494gat:10 0.0787
14 n494gat:10 inst_679:A2 0.2007
15 n494gat:7 n494gat:11 0.4911
16 n494gat:11 n494gat:12 0.2002
17 n494gat:12 n494gat:13 0.2573
18 n494gat:13 n494gat:14 0.3761
19 n494gat:14 n494gat:15 0.0616
20 n494gat:15 inst_749:A2 0.4298
21 n494gat:9 n494gat:16 0.4556
22 n494gat:16 n494gat:17 0.1284
23 n494gat:17 n494gat:18 0.0036
24 n494gat:18 inst_718:A2 0.1731
25 n494gat:11 n494gat:19 0.3815
26 n494gat:19 n494gat:20 0.1458
27 n494gat:20 n494gat:21 0.4915
28 n494gat:21 n494gat:22 0.0683
29 n494gat:22 n494gat:23 0.2135
30 n494gat:23 inst_550:A2 0.4484
31 n494gat:7 n494gat:24 0.4806
32 n494gat:24 n494gat:25 0.3473
33 n494gat:25 inst_616:A2 0.1114
34 n494gat:1 n494gat:26 0.4236
35 n494gat:26 n494gat:27 0.3328
36 n494gat:27 n494gat:28 0.1906
37 n494gat:28 inst_529:A2 0.5003
38 n494gat:18 n494gat:29 0.2571
39 n494gat:29 n494gat:30 0.3610
40 n494gat:30 inst_657:A2 0.0042
41 n494gat:17 n494gat:31 0.0741
42 n494gat:31 n494gat:32 0.4290
43 n494gat:32 n494gat:33 0.4891
44 n494gat:33 n494gat:34 0.0621
45 n494gat:34 inst_744:A2 0.2122
46 n494gat:15 n494gat:35 0.0283
47 n494gat:35 n494gat:36 0.2644
48 n494gat:36 inst_738:A2 0.3395
49 n494gat:10 n494gat:37 0.2177
50 n494gat:37 n494gat:38 0.0520
51 n494gat:38 inst_719:A2 0.1787
52 n494gat:26 n494gat:39 0.3303
53 n494gat:39 n494gat:40 0.0500
54 n494gat:40 n494gat:41 0.3450
55 n494gat:41 inst_686:A2 0.2552
56 n494gat:21 n494gat:42 0.2539
57 n494gat:42 n494gat:43 0.0169
58 n494gat:43 n494gat:44 0.2910
59 n494gat:44 n494gat:45 0.3418
60 n494gat:45 inst_755:A2 0.0277
61 n494gat:21 n494gat:46 0.0258
62 n494gat:46 inst_757:A2 0.0722
63 n494gat:3 n494gat:47 0.0730
64 n494gat:47 inst_564:A2 0.2996
*END

*D_NET TAUNET_49 0.8621
*CONN
*I inst_1394:ZN O
*I TAUGATE_49:A I
*CAP
1 inst_1394:ZN 0.2720
2 TAUNET_49:1 0.1555
3 TAUGATE_49:A 0.4347
*RES
2 inst_1394:ZN TAUNET_49:1 0.2976
3 TAUNET_49:1 TAUGATE_49:A 0.3531
*END

*D_NET net_770 2.1724
*CONN
*I TAUGATE_28:Z O
*I inst_1501:A I
*I inst_209:A I
*CAP
1 TAUGATE_28:Z 0.1823
2 net_770:1 0.3163
3 inst_1501:A 0.3515
4 net_770:2 0.4000
5 net_770:3 0.0188
6 net_770:4 0.4709
7 net_770:5 0.4204
8 inst_209:A 0.0122
*RES
2 TAUGATE_28:Z net_770:1 0.2983
3 net_770:1 inst_1501:A 0.4269
4 net_770:1 net_770:2 0.2688
5 net_770:2 net_770:3 0.0936
6 net_770:3 net_770:4 0.3051
7 net_770:4 net_770:5 0.1197
8 net_770:5 inst_209:A 0.2956
*END

*D_NET net_625 2.1093
*CONN
*I TAUGATE_45:Z O
*I inst_163:A I
*I inst_964:A1 I
*CAP
1 TAUGATE_45:Z 0.0970
2 net_625:1 0.3150
3 net_625:2 0.0137
4 net_625:3 0.2108
5 inst_163:A 0.3101
6 net_625:4 0.3768
7 net_625:5 0.3083
8 net_625:6 0.1250
9 inst_964:A1 0.3526
*RES
2 TAUGATE_45:Z net_625:1 0.0161
3 net_625:1 net_625:2 0.2047
4 net_625:2 net_625:3 0.3729
5 net_625:3 inst_163:A 0.0610
6 net_625:3 net_625:4 0.3715
7 net_625:4 net_625:5 0.3144
8 net_625:5 net_625:6 0.3618
9 net_625:6 inst_964:A1 0.0820
*END

*D_NET net_1332 2.8647
*CONN
*I TAUGATE_14:Z O
*I inst_1262:A2 I
*I inst_364:B I
*CAP
1 TAUGATE_14:Z 0.3638
2 net_1332:1 0.2418
3 net_1332:2 0.4080
4 net_1332:3 0.3118
5 net_1332:4 0.4981
6 net_1332:5 0.3134
7 inst_1262:A2 0.4059
8 net_1332:6 0.0712
9 net_1332:7 0.0044
10 net_1332:8 0.1986
11 inst_364:B 0.0476
*RES
2 TAUGATE_14:Z net_1332:1 0.1396
3 net_1332:1 net_1332:2 0.0910
4 net_1332:2 net_1332:3 0.1278
5 net_1332:3 net_1332:4 0.3093
6 net_1332:4 net_1332:5 0.3342
7 net_1332:5 inst_1262:A2 0.2150
8 net_1332:2 net_1332:6 0.0521
9 net_1332:6 net_1332:7 0.0546
10 net_1332:7 net_1332:8 0.0043
11 net_1332:8 inst_364:B 0.2737
*END

*D_NET net_68 2.8084
*CONN
*I TAUGATE_58:Z O
*I inst_1404:A I
*I inst_511:A2 I
*CAP
1 TAUGATE_58:Z 0.2677
2 net_68:1 0.1466
3 net_68:2 0.2784
4 net_68:3 0.2008
5 inst_511:A2 0.3776
6 net_68:4 0.3567
7 net_68:5 0.3242
8 net_68:6 0.2336
9 net_68:7 0.3863
10 inst_1404:A 0.2365
*RES
2 TAUGATE_58:Z net_68:1 0.2937
3 net_68:1 net_68:2 0.0093
4 net_68:2 net_68:3 0.2822
5 net_68:3 inst_511:A2 0.4311
6 net_68:1 net_68:4 0.1037
7 net_68:4 net_68:5 0.3572
8 net_68:5 net_68:6 0.2211
9 net_68:6 net_68:7 0.2185
10 net_68:7 inst_1404:A 0.2266
*END

*D_NET net_414 1.9002
*CONN
*I TAUGATE_59:Z O
*I inst_906:A1 I
*CAP
1 TAUGATE_59:Z 0.1297
2 net_414:1 0.2417
3 net_414:2 0.2444
4 net_414:3 0.4262
5 net_414:4 0.3737
6 net_414:5 0.3015
7 inst_906:A1 0.1830
*RES
2 TAUGATE_59:Z net_414:1 0.3035
3 net_414:1 net_414:2 0.4053
4 net_414:2 net_414:3 0.0863
5 net_414:3 net_414:4 0.2362
6 net_414:4 net_414:5 0.1365
7 net_414:5 inst_906:A1 0.0277
*END

*D_NET TAUNET_50 0.8486
*CONN
*I inst_242:ZN O
*I TAUGATE_50:A I
*CAP
1 inst_242:ZN 0.2912
2 TAUNET_50:1 0.3711
3 TAUNET_50:2 0.0512
4 TAUGATE_50:A 0.1351
*RES
2 inst_242:ZN TAUNET_50:1 0.0984
3 TAUNET_50:1 TAUNET_50:2 0.0368
4 TAUNET_50:2 TAUGATE_50:A 0.4376
*END

*D_NET net_541 2.5993
*CONN
*I TAUGATE_26:Z O
*I inst_148:A I
*I inst_1468:A I
*CAP
1 TAUGATE_26:Z 0.1283
2 net_541:1 0.3234
3 net_541:2 0.4610
4 inst_148:A 0.4832
5 net_541:3 0.4556
6 net_541:4 0.1835
7 net_541:5 0.0020
8 net_541:6 0.2614
9 inst_1468:A 0.3010
*RES
2 TAUGATE_26:Z net_541:1 0.2776
3 net_541:1 net_541:2 0.3781
4 net_541:2 inst_148:A 0.3766
5 net_541:1 net_541:3 0.2164
6 net_541:3 net_541:4 0.4372
7 net_541:4 net_541:5 0.1158
8 net_541:5 net_541:6 0.1153
9 net_541:6 inst_1468:A 0.3810
*END

*D_NET TAUNET_23 1.4651
*CONN
*I inst_1238:ZN O
*I TAUGATE_23:A I
*CAP
1 inst_1238:ZN 0.1662
2 TAUNET_23:1 0.2541
3 TAUNET_23:2 0.2497
4 TAUNET_23:3 0.4625
5 TAUNET_23:4 0.2343
6 TAUGATE_23:A 0.0981
*RES
2 inst_1238:ZN TAUNET_23:1 0.3461
3 TAUNET_23:1 TAUNET_23:2 0.2382
4 TAUNET_23:2 TAUNET_23:3 0.4109
5 TAUNET_23:3 TAUNET_23:4 0.0945
6 TAUNET_23:4 TAUGATE_23:A 0.2326
*END

*D_NET TAUNET_39 0.7650
*CONN
*I inst_279:ZN O
*I TAUGATE_39:A I
*CAP
1 inst_279:ZN 0.2674
2 TAUNET_39:1 0.0414
3 TAUNET_39:2 0.2455
4 TAUNET_39:3 0.1970
5 TAUGATE_39:A 0.0138
*RES
2 inst_279:ZN TAUNET_39:1 0.4527
3 TAUNET_39:1 TAUNET_39:2 0.3131
4 TAUNET_39:2 TAUNET_39:3 0.4392
5 TAUNET_39:3 TAUGATE_39:A 0.4048
*END

*D_NET net_361 1.7566
*CONN
*I TAUGATE_43:Z O
*I inst_856:A2 I
*CAP
1 TAUGATE_43:Z 0.3283
2 net_361:1 0.4199
3 net_361:2 0.3736
4 net_361:3 0.3306
5 inst_856:A2 0.3042
*RES
2 TAUGATE_43:Z net_361:1 0.1317
3 net_361:1 net_361:2 0.1481
4 net_361:2 net_361:3 0.2485
5 net_361:3 inst_856:A2 0.2201
*END

*D_NET net_1439 2.1088
*CONN
*I TAUGATE_57:Z O
*I inst_393:B I
*I inst_1307:A2 I
*CAP
1 TAUGATE_57:Z 0.3013
2 net_1439:1 0.0262
3 inst_1307:A2 0.3812
4 net_1439:2 0.2523
5 net_1439:3 0.0497
6 net_1439:4 0.4938
7 net_1439:5 0.3913
8 inst_393:B 0.2131
*RES
2 TAUGATE_57:Z net_1439:1 0.0656
3 net_1439:1 inst_1307:A2 0.1550
4 net_1439:1 net_1439:2 0.3201
5 net_1439:2 net_1439:3 0.0320
6 net_1439:3 net_1439:4 0.2786
7 net_1439:4 net_1439:5 0.3378
8 net_1439:5 inst_393:B 0.4364
*END

*D_NET net_542 1.5961
*CONN
*I TAUGATE_55:Z O
*I inst_934:A2 I
*CAP
1 TAUGATE_55:Z 0.4527
2 net_542:1 0.3641
3 net_542:2 0.1740
4 net_542:3 0.2701
5 inst_934:A2 0.3351
*RES
2 TAUGATE_55:Z net_542:1 0.4105
3 net_542:1 net_542:2 0.3004
4 net_542:2 net_542:3 0.3665
5 net_542:3 inst_934:A2 0.1341
*END

*D_NET TAUNET_51 0.7589
*CONN
*I inst_150:ZN O
*I TAUGATE_51:A I
*CAP
1 inst_150:ZN 0.1706
2 TAUNET_51:1 0.0751
3 TAUNET_51:2 0.1227
4 TAUNET_51:3 0.0294
5 TAUNET_51:4 0.0059
6 TAUGATE_51:A 0.3552
*RES
2 inst_150:ZN TAUNET_51:1 0.3839
3 TAUNET_51:1 TAUNET_51:2 0.1840
4 TAUNET_51:2 TAUNET_51:3 0.4010
5 TAUNET_51:3 TAUNET_51:4 0.3573
6 TAUNET_51:4 TAUGATE_51:A 0.4559
*END

*D_NET net_1630 2.8028
*CONN
*I TAUGATE_44:Z O
*I inst_447:A I
*I inst_1397:A1 I
*CAP
1 TAUGATE_44:Z 0.1715
2 net_1630:1 0.3594
3 net_1630:2 0.4902
4 net_1630:3 0.4716
5 net_1630:4 0.2112
6 inst_1397:A1 0.1762
7 net_1630:5 0.4669
8 net_1630:6 0.1932
9 net_1630:7 0.0675
10 net_1630:8 0.0053
11 net_1630:9 0.1459
12 inst_447:A 0.0437
*RES
2 TAUGATE_44:Z net_1630:1 0.1166
3 net_1630:1 net_1630:2 0.1660
4 net_1630:2 net_1630:3 0.2177
5 net_1630:3 net_1630:4 0.2908
6 net_1630:4 inst_1397:A1 0.3318
7 net_1630:3 net_1630:5 0.4598
8 net_1630:5 net_1630:6 0.3838
9 net_1630:6 net_1630:7 0.2033
10 net_1630:7 net_1630:8 0.3263
11 net_1630:8 net_1630:9 0.4574
12 net_1630:9 inst_447:A 0.4683
*END

*D_NET net_1392 1.4761
*CONN
*I TAUGATE_32:Z O
*I inst_1300:A2 I
*CAP
1 TAUGATE_32:Z 0.4873
2 net_1392:1 0.4800
3 net_1392:2 0.4518
4 inst_1300:A2 0.0570
*RES
2 TAUGATE_32:Z net_1392:1 0.4909
3 net_1392:1 net_1392:2 0.0572
4 net_1392:2 inst_1300:A2 0.5008
*END

*D_NET TAUNET_19 2.4403
*CONN
*I inst_1141:ZN O
*I TAUGATE_19:A I
*CAP
1 inst_1141:ZN 0.2457
2 TAUNET_19:1 0.2594
3 TAUNET_19:2 0.3565
4 TAUNET_19:3 0.4074
5 TAUNET_19:4 0.4309
6 TAUNET_19:5 0.4474
7 TAUGATE_19:A 0.2931
*RES
2 inst_1141:ZN TAUNET_19:1 0.2848
3 TAUNET_19:1 TAUNET_19:2 0.2246
4 TAUNET_19:2 TAUNET_19:3 0.3320
5 TAUNET_19:3 TAUNET_19:4 0.3870
6 TAUNET_19:4 TAUNET_19:5 0.3663
7 TAUNET_19:5 TAUGATE_19:A 0.1512
*END

*D_NET TAUNET_34 2.3961
*CONN
*I inst_904:ZN O
*I TAUGATE_34:A I
*CAP
1 inst_904:ZN 0.4493
2 TAUNET_34:1 0.2866
3 TAUNET_34:2 0.1873
4 TAUNET_34:3 0.1599
5 TAUNET_34:4 0.3589
6 TAUNET_34:5 0.4697
7 TAUGATE_34:A 0.4844
*RES
2 inst_904:ZN TAUNET_34:1 0.0401
3 TAUNET_34:1 TAUNET_34:2 0.2861
4 TAUNET_34:2 TAUNET_34:3 0.1883
5 TAUNET_34:3 TAUNET_34:4 0.3075
6 TAUNET_34:4 TAUNET_34:5 0.0604
7 TAUNET_34:5 TAUGATE_34:A 0.3908
*END

*D_NET TAUNET_54 1.0274
*CONN
*I inst_1592:ZN O
*I TAUGATE_54:A I
*CAP
1 inst_1592:ZN 0.4162
2 TAUNET_54:1 0.0491
3 TAUNET_54:2 0.3511
4 TAUGATE_54:A 0.2111
*RES
2 inst_1592:ZN TAUNET_54:1 0.3010
3 TAUNET_54:1 TAUNET_54:2 0.1515
4 TAUNET_54:2 TAUGATE_54:A 0.0492
*END

*D_NET TAUNET_44 1.1227
*CONN
*I inst_420:ZN O
*I TAUGATE_44:A I
*CAP
1 inst_420:ZN 0.0711
2 TAUNET_44:1 0.0021
3 TAUNET_44:2 0.2080
4 TAUNET_44:3 0.3529
5 TAUGATE_44:A 0.4886
*RES
2 inst_420:ZN TAUNET_44:1 0.3648
3 TAUNET_44:1 TAUNET_44:2 0.4404
4 TAUNET_44:2 TAUNET_44:3 0.3187
5 TAUNET_44:3 TAUGATE_44:A 0.4272
*END

*D_NET net_1544 3.1956
*CONN
*I TAUGATE_17:Z O
*I inst_421:B I
*I inst_1350:A1 I
*CAP
1 TAUGATE_17:Z 0.4026
2 net_1544:1 0.1803
3 net_1544:2 0.0882
4 net_1544:3 0.2924
5 inst_421:B 0.4780
6 net_1544:4 0.0762
7 net_1544:5 0.1986
8 net_1544:6 0.3922
9 net_1544:7 0.3950
10 net_1544:8 0.2666
11 inst_1350:A1 0.4255
*RES
2 TAUGATE_17:Z net_1544:1 0.3510
3 net_1544:1 net_1544:2 0.1182
4 net_1544:2 net_1544:3 0.2614
5 net_1544:3 inst_421:B 0.1530
6 net_1544:2 net_1544:4 0.4671
7 net_1544:4 net_1544:5 0.2972
8 net_1544:5 net_1544:6 0.3936
9 net_1544:6 net_1544:7 0.4880
10 net_1544:7 net_1544:8 0.4169
11 net_1544:8 inst_1350:A1 0.3167
*END

*D_NET net_760 2.6904
*CONN
*I TAUGATE_53:Z O
*I inst_1498:A I
*I inst_206:A I
*CAP
1 TAUGATE_53:Z 0.1073
2 net_760:1 0.1300
3 net_760:2 0.3795
4 net_760:3 0.2362
5 net_760:4 0.1908
6 inst_206:A 0.1996
7 net_760:5 0.3466
8 net_760:6 0.4948
9 net_760:7 0.4038
10 net_760:8 0.1954
11 inst_1498:A 0.0063
*RES
2 TAUGATE_53:Z net_760:1 0.3123
3 net_760:1 net_760:2 0.1251
4 net_760:2 net_760:3 0.0048
5 net_760:3 net_760:4 0.3126
6 net_760:4 inst_206:A 0.0195
7 net_760:4 net_760:5 0.4904
8 net_760:5 net_760:6 0.0915
9 net_760:6 net_760:7 0.4619
10 net_760:7 net_760:8 0.1065
11 net_760:8 inst_1498:A 0.1990
*END

*D_NET TAUNET_43 0.5577
*CONN
*I inst_842:ZN O
*I TAUGATE_43:A I
*CAP
1 inst_842:ZN 0.0690
2 TAUNET_43:1 0.2934
3 TAUNET_43:2 0.0661
4 TAUNET_43:3 0.0281
5 TAUGATE_43:A 0.1011
*RES
2 inst_842:ZN TAUNET_43:1 0.2539
3 TAUNET_43:1 TAUNET_43:2 0.0765
4 TAUNET_43:2 TAUNET_43:3 0.1980
5 TAUNET_43:3 TAUGATE_43:A 0.3226
*END

*D_NET net_929 3.3426
*CONN
*I TAUGATE_12:Z O
*I inst_1091:A2 I
*I inst_251:B I
*CAP
1 TAUGATE_12:Z 0.2766
2 net_929:1 0.4267
3 net_929:2 0.4596
4 net_929:3 0.3295
5 net_929:4 0.4724
6 net_929:5 0.4631
7 inst_1091:A2 0.0407
8 net_929:6 0.0346
9 net_929:7 0.4333
10 net_929:8 0.0645
11 inst_251:B 0.3416
*RES
2 TAUGATE_12:Z net_929:1 0.4130
3 net_929:1 net_929:2 0.3462
4 net_929:2 net_929:3 0.0714
5 net_929:3 net_929:4 0.2110
6 net_929:4 net_929:5 0.2588
7 net_929:5 inst_1091:A2 0.0339
8 net_929:3 net_929:6 0.4099
9 net_929:6 net_929:7 0.1540
10 net_929:7 net_929:8 0.0325
11 net_929:8 inst_251:B 0.0924
*END

*D_NET TAUNET_56 1.2932
*CONN
*I inst_1522:ZN O
*I TAUGATE_56:A I
*CAP
1 inst_1522:ZN 0.1516
2 TAUNET_56:1 0.4228
3 TAUNET_56:2 0.1417
4 TAUNET_56:3 0.3754
5 TAUGATE_56:A 0.2016
*RES
2 inst_1522:ZN TAUNET_56:1 0.0068
3 TAUNET_56:1 TAUNET_56:2 0.2001
4 TAUNET_56:2 TAUNET_56:3 0.4220
5 TAUNET_56:3 TAUGATE_56:A 0.4926
*END

*D_NET TAUNET_55 1.4952
*CONN
*I inst_1468:ZN O
*I TAUGATE_55:A I
*CAP
1 inst_1468:ZN 0.3810
2 TAUNET_55:1 0.2042
3 TAUNET_55:2 0.2030
4 TAUNET_55:3 0.2656
5 TAUGATE_55:A 0.4413
*RES
2 inst_1468:ZN TAUNET_55:1 0.1336
3 TAUNET_55:1 TAUNET_55:2 0.4042
4 TAUNET_55:2 TAUNET_55:3 0.0451
5 TAUNET_55:3 TAUGATE_55:A 0.2391
*END

*D_NET TAUNET_11 0.9045
*CONN
*I inst_329:ZN O
*I TAUGATE_11:A I
*CAP
1 inst_329:ZN 0.4146
2 TAUNET_11:1 0.2654
3 TAUGATE_11:A 0.2245
*RES
2 inst_329:ZN TAUNET_11:1 0.4797
3 TAUNET_11:1 TAUGATE_11:A 0.0551
*END

*D_NET TAUNET_33 1.5272
*CONN
*I inst_1115:ZN O
*I TAUGATE_33:A I
*CAP
1 inst_1115:ZN 0.0973
2 TAUNET_33:1 0.1903
3 TAUNET_33:2 0.2143
4 TAUNET_33:3 0.0701
5 TAUNET_33:4 0.2421
6 TAUNET_33:5 0.4634
7 TAUGATE_33:A 0.2497
*RES
2 inst_1115:ZN TAUNET_33:1 0.2766
3 TAUNET_33:1 TAUNET_33:2 0.3086
4 TAUNET_33:2 TAUNET_33:3 0.2353
5 TAUNET_33:3 TAUNET_33:4 0.4838
6 TAUNET_33:4 TAUNET_33:5 0.0722
7 TAUNET_33:5 TAUGATE_33:A 0.3539
*END

*D_NET TAUNET_22 1.2346
*CONN
*I inst_522:ZN O
*I TAUGATE_22:A I
*CAP
1 inst_522:ZN 0.0192
2 TAUNET_22:1 0.4054
3 TAUNET_22:2 0.3681
4 TAUGATE_22:A 0.4419
*RES
2 inst_522:ZN TAUNET_22:1 0.1561
3 TAUNET_22:1 TAUNET_22:2 0.1347
4 TAUNET_22:2 TAUGATE_22:A 0.0224
*END

*D_NET TAUNET_41 1.9103
*CONN
*I inst_1265:ZN O
*I TAUGATE_41:A I
*CAP
1 inst_1265:ZN 0.2244
2 TAUNET_41:1 0.1374
3 TAUNET_41:2 0.1713
4 TAUNET_41:3 0.2153
5 TAUNET_41:4 0.3119
6 TAUNET_41:5 0.4918
7 TAUGATE_41:A 0.3583
*RES
2 inst_1265:ZN TAUNET_41:1 0.0251
3 TAUNET_41:1 TAUNET_41:2 0.0071
4 TAUNET_41:2 TAUNET_41:3 0.2242
5 TAUNET_41:3 TAUNET_41:4 0.4834
6 TAUNET_41:4 TAUNET_41:5 0.4589
7 TAUNET_41:5 TAUGATE_41:A 0.0098
*END

*D_NET net_660 3.2689
*CONN
*I TAUGATE_15:Z O
*I inst_177:A I
*I inst_1484:A I
*CAP
1 TAUGATE_15:Z 0.2846
2 net_660:1 0.1185
3 net_660:2 0.4585
4 net_660:3 0.3703
5 net_660:4 0.0365
6 net_660:5 0.4409
7 inst_1484:A 0.4335
8 net_660:6 0.4514
9 net_660:7 0.1489
10 net_660:8 0.3442
11 inst_177:A 0.1815
*RES
2 TAUGATE_15:Z net_660:1 0.3158
3 net_660:1 net_660:2 0.2513
4 net_660:2 net_660:3 0.4798
5 net_660:3 net_660:4 0.1640
6 net_660:4 net_660:5 0.1778
7 net_660:5 inst_1484:A 0.3155
8 net_660:3 net_660:6 0.2112
9 net_660:6 net_660:7 0.3238
10 net_660:7 net_660:8 0.1536
11 net_660:8 inst_177:A 0.2744
*END

*D_NET TAUNET_30 0.2935
*CONN
*P n290gat I
*I TAUGATE_30:A I
*CAP
1 n290gat 0.0682
2 TAUNET_30:1 0.2235
3 TAUGATE_30:A 0.0018
*RES
2 n290gat TAUNET_30:1 0.2665
3 TAUNET_30:1 TAUGATE_30:A 0.4580
*END

*D_NET TAUNET_58 1.3311
*CONN
*I inst_501:ZN O
*I TAUGATE_58:A I
*CAP
1 inst_501:ZN 0.4660