*SPEF "IEEE 1481-1998"
*DESIGN "changes"
*DATE "Tue Dec 02 20:02:01 2014"
*VENDOR "TAU 2015 Contest"
*PROGRAM "Benchmark Parasitic Generator"
*VERSION "0.0"
*DESIGN_FLOW "NETLIST_TYPE_VERILOG"
*DIVIDER /
*DELIMITER :
*BUS_DELIMITER [ ]
*T_UNIT 1 PS
*C_UNIT 1 FF
*R_UNIT 1 KOHM
*L_UNIT 1 UH

*D_NET TAUNET_94 1.7439
*CONN
*I TAUGATE_96:Z O
*I TAUGATE_94:A I
*CAP
1 TAUGATE_96:Z 0.2611
2 TAUNET_94:1 0.4098
3 TAUNET_94:2 0.5009
4 TAUNET_94:3 0.2843
5 TAUGATE_94:A 0.2878
*RES
2 TAUGATE_96:Z TAUNET_94:1 0.1659
3 TAUNET_94:1 TAUNET_94:2 0.2742
4 TAUNET_94:2 TAUNET_94:3 0.3494
5 TAUNET_94:3 TAUGATE_94:A 0.1485
*END

*D_NET TAUNET_47 1.3760
*CONN
*I TAUGATE_90:Z O
*I TAUGATE_47:A I
*CAP
1 TAUGATE_90:Z 0.2110
2 TAUNET_47:1 0.3070
3 TAUNET_47:2 0.3583
4 TAUNET_47:3 0.1395
5 TAUNET_47:4 0.0646
6 TAUNET_47:5 0.0794
7 TAUGATE_47:A 0.2161
*RES
2 TAUGATE_90:Z TAUNET_47:1 0.1614
3 TAUNET_47:1 TAUNET_47:2 0.3312
4 TAUNET_47:2 TAUNET_47:3 0.3755
5 TAUNET_47:3 TAUNET_47:4 0.4644
6 TAUNET_47:4 TAUNET_47:5 0.4559
7 TAUNET_47:5 TAUGATE_47:A 0.4050
*END

*D_NET TAUNET_83 0.4849
*CONN
*I TAUGATE_71:Z O
*I TAUGATE_83:A I
*CAP
1 TAUGATE_71:Z 0.1670
2 TAUNET_83:1 0.2440
3 TAUNET_83:2 0.0332
4 TAUGATE_83:A 0.0406
*RES
2 TAUGATE_71:Z TAUNET_83:1 0.2732
3 TAUNET_83:1 TAUNET_83:2 0.0073
4 TAUNET_83:2 TAUGATE_83:A 0.1308
*END

*D_NET TAUNET_43 1.8161
*CONN
*I TAUGATE_84:Z O
*I TAUGATE_43:A I
*CAP
1 TAUGATE_84:Z 0.2909
2 TAUNET_43:1 0.0740
3 TAUNET_43:2 0.4871
4 TAUNET_43:3 0.4951
5 TAUNET_43:4 0.4125
6 TAUGATE_43:A 0.0565
*RES
2 TAUGATE_84:Z TAUNET_43:1 0.1285
3 TAUNET_43:1 TAUNET_43:2 0.0292
4 TAUNET_43:2 TAUNET_43:3 0.2926
5 TAUNET_43:3 TAUNET_43:4 0.4507
6 TAUNET_43:4 TAUGATE_43:A 0.3356
*END

*D_NET TAUNET_98 4.2828
*CONN
*I TAUGATE_72:Z O
*I TAUGATE_98:A I
*I inst_3:A2 I
*I inst_4:A2 I
*CAP
1 TAUGATE_72:Z 0.3845
2 TAUNET_98:1 0.3056
3 TAUNET_98:2 0.3464
4 TAUNET_98:3 0.0305
5 TAUNET_98:4 0.2383
6 TAUNET_98:5 0.4020
7 inst_4:A2 0.2529
8 TAUNET_98:6 0.2236
9 inst_3:A2 0.1922
10 TAUNET_98:7 0.4680
11 TAUNET_98:8 0.2976
12 TAUNET_98:9 0.2331
13 TAUNET_98:10 0.2927
14 TAUNET_98:11 0.3943
15 TAUGATE_98:A 0.2211
*RES
2 TAUGATE_72:Z TAUNET_98:1 0.2665
3 TAUNET_98:1 TAUNET_98:2 0.4354
4 TAUNET_98:2 TAUNET_98:3 0.1977
5 TAUNET_98:3 TAUNET_98:4 0.0788
6 TAUNET_98:4 TAUNET_98:5 0.3276
7 TAUNET_98:5 inst_4:A2 0.3833
8 TAUNET_98:4 TAUNET_98:6 0.2805
9 TAUNET_98:6 inst_3:A2 0.1322
10 TAUNET_98:3 TAUNET_98:7 0.1955
11 TAUNET_98:7 TAUNET_98:8 0.1868
12 TAUNET_98:8 TAUNET_98:9 0.4889
13 TAUNET_98:9 TAUNET_98:10 0.0703
14 TAUNET_98:10 TAUNET_98:11 0.3298
15 TAUNET_98:11 TAUGATE_98:A 0.4131
*END

