*SPEF "IEEE 1481-1998"
*DESIGN "changes"
*DATE "Tue Dec 02 20:05:01 2014"
*VENDOR "TAU 2015 Contest"
*PROGRAM "Benchmark Parasitic Generator"
*VERSION "0.0"
*DESIGN_FLOW "NETLIST_TYPE_VERILOG"
*DIVIDER /
*DELIMITER :
*BUS_DELIMITER [ ]
*T_UNIT 1 PS
*C_UNIT 1 FF
*R_UNIT 1 KOHM
*L_UNIT 1 UH

*D_NET net_21490 1.7439
*CONN
*I TAUGATE_5:Z O
*I inst_19220:A2 I
*CAP
1 TAUGATE_5:Z 0.2611
2 net_21490:1 0.4098
3 net_21490:2 0.5009
4 net_21490:3 0.2843
5 inst_19220:A2 0.2878
*RES
2 TAUGATE_5:Z net_21490:1 0.1659
3 net_21490:1 net_21490:2 0.2742
4 net_21490:2 net_21490:3 0.3494
5 net_21490:3 inst_19220:A2 0.1485
*END

*D_NET TAUNET_9 1.3760
*CONN
*I inst_82786:QN O
*I TAUGATE_9:A I
*CAP
1 inst_82786:QN 0.2110
2 TAUNET_9:1 0.3070
3 TAUNET_9:2 0.3583
4 TAUNET_9:3 0.1395
5 TAUNET_9:4 0.0646
6 TAUNET_9:5 0.0794
7 TAUGATE_9:A 0.2161
*RES
2 inst_82786:QN TAUNET_9:1 0.1614
3 TAUNET_9:1 TAUNET_9:2 0.3312
4 TAUNET_9:2 TAUNET_9:3 0.3755
5 TAUNET_9:3 TAUNET_9:4 0.4644
6 TAUNET_9:4 TAUNET_9:5 0.4559
7 TAUNET_9:5 TAUGATE_9:A 0.4050
*END

*D_NET net_71952 0.4849
*CONN
*I TAUGATE_7:Z O
*I inst_77333:D I
*CAP
1 TAUGATE_7:Z 0.1670
2 net_71952:1 0.2440
3 net_71952:2 0.0332
4 inst_77333:D 0.0406
*RES
2 TAUGATE_7:Z net_71952:1 0.2732
3 net_71952:1 net_71952:2 0.0073
4 net_71952:2 inst_77333:D 0.1308
*END

*D_NET TAUNET_5 1.8161
*CONN
*I inst_86202:ZN O
*I TAUGATE_5:A I
*CAP
1 inst_86202:ZN 0.2909
2 TAUNET_5:1 0.0740
3 TAUNET_5:2 0.4871
4 TAUNET_5:3 0.4951
5 TAUNET_5:4 0.4125
6 TAUGATE_5:A 0.0565
*RES
2 inst_86202:ZN TAUNET_5:1 0.1285
3 TAUNET_5:1 TAUNET_5:2 0.0292
4 TAUNET_5:2 TAUNET_5:3 0.2926
5 TAUNET_5:3 TAUNET_5:4 0.4507
6 TAUNET_5:4 TAUGATE_5:A 0.3356
*END

*D_NET TAUNET_8 1.9602
*CONN
*I inst_70005:ZN O
*I TAUGATE_8:A I
*CAP
1 inst_70005:ZN 0.3845
2 TAUNET_8:1 0.3056
3 TAUNET_8:2 0.3464
4 TAUNET_8:3 0.0305
5 TAUNET_8:4 0.2383
6 TAUNET_8:5 0.4020
7 TAUGATE_8:A 0.2529
*RES
2 inst_70005:ZN TAUNET_8:1 0.2665
3 TAUNET_8:1 TAUNET_8:2 0.4354
4 TAUNET_8:2 TAUNET_8:3 0.1977
5 TAUNET_8:3 TAUNET_8:4 0.0788
6 TAUNET_8:4 TAUNET_8:5 0.3276
7 TAUNET_8:5 TAUGATE_8:A 0.3833
*END

*D_NET net_43806 0.8670
*CONN
*I TAUGATE_6:Z O
*I inst_8907:A I
*CAP
1 TAUGATE_6:Z 0.0716
2 net_43806:1 0.1922
3 net_43806:2 0.2805
4 net_43806:3 0.1322
5 inst_8907:A 0.1905
*RES
2 TAUGATE_6:Z net_43806:1 0.4017
3 net_43806:1 net_43806:2 0.4680
4 net_43806:2 net_43806:3 0.2976
5 net_43806:3 inst_8907:A 0.2331
*END

*D_NET TAUNET_6 1.3358
*CONN
*I inst_40533:ZN O
*I TAUGATE_6:A I
*CAP
1 inst_40533:ZN 0.3943
2 TAUNET_6:1 0.1955
3 TAUNET_6:2 0.1868
4 TAUNET_6:3 0.4889
5 TAUGATE_6:A 0.0703
*RES
2 inst_40533:ZN TAUNET_6:1 0.3298
3 TAUNET_6:1 TAUNET_6:2 0.4131
4 TAUNET_6:2 TAUNET_6:3 0.3310
5 TAUNET_6:3 TAUGATE_6:A 0.2621
*END

*D_NET net_36619 2.7698
*CONN
*I TAUGATE_8:Z O
*I inst_53488:A1 I
*I inst_26742:A1 I
*CAP
1 TAUGATE_8:Z 0.1808
2 net_36619:1 0.3990
3 inst_26742:A1 0.4035
4 net_36619:2 0.3591
5 net_36619:3 0.2780
6 net_36619:4 0.2022
7 net_36619:5 0.1593
8 net_36619:6 0.4382
9 inst_53488:A1 0.3498
*RES
2 TAUGATE_8:Z net_36619:1 0.0219
3 net_36619:1 inst_26742:A1 0.0830
4 net_36619:1 net_36619:2 0.4055
5 net_36619:2 net_36619:3 0.4519
6 net_36619:3 net_36619:4 0.4658
7 net_36619:4 net_36619:5 0.3690
8 net_36619:5 net_36619:6 0.4019
9 net_36619:6 inst_53488:A1 0.0632
*END

*D_NET TAUNET_7 2.0111
*CONN
*I inst_7137:ZN O
*I TAUGATE_7:A I
*CAP
1 inst_7137:ZN 0.4700
2 TAUNET_7:1 0.3545
3 TAUNET_7:2 0.1033
4 TAUNET_7:3 0.4316
5 TAUNET_7:4 0.1782
6 TAUGATE_7:A 0.4734
*RES
2 inst_7137:ZN TAUNET_7:1 0.0376
3 TAUNET_7:1 TAUNET_7:2 0.0972
4 TAUNET_7:2 TAUNET_7:3 0.3594
5 TAUNET_7:3 TAUNET_7:4 0.0525
6 TAUNET_7:4 TAUGATE_7:A 0.3248
*END

*D_NET net_3755 1.7532
*CONN
*I TAUGATE_9:Z O
*I inst_64983:A I
*CAP
1 TAUGATE_9:Z 0.1267
2 net_3755:1 0.2434
3 net_3755:2 0.3726
4 net_3755:3 0.2980
5 net_3755:4 0.2454
6 inst_64983:A 0.4670
*RES
2 TAUGATE_9:Z net_3755:1 0.1921
3 net_3755:1 net_3755:2 0.1376
4 net_3755:2 net_3755:3 0.4443
5 net_3755:3 net_3755:4 0.1288
6 net_3755:4 inst_64983:A 0.3022
*END

