*SPEF "IEEE 1481-1998"
*DESIGN "changes"
*DATE "Tue Dec 02 20:05:02 2014"
*VENDOR "TAU 2015 Contest"
*PROGRAM "Benchmark Parasitic Generator"
*VERSION "0.0"
*DESIGN_FLOW "NETLIST_TYPE_VERILOG"
*DIVIDER /
*DELIMITER :
*BUS_DELIMITER [ ]
*T_UNIT 1 PS
*C_UNIT 1 FF
*R_UNIT 1 KOHM
*L_UNIT 1 UH

*D_NET net_54594 1.7439
*CONN
*I TAUGATE_41:Z O
*I inst_82202:D I
*CAP
1 TAUGATE_41:Z 0.2611
2 net_54594:1 0.4098
3 net_54594:2 0.5009
4 net_54594:3 0.2843
5 inst_82202:D 0.2878
*RES
2 TAUGATE_41:Z net_54594:1 0.1659
3 net_54594:1 net_54594:2 0.2742
4 net_54594:2 net_54594:3 0.3494
5 net_54594:3 inst_82202:D 0.1485
*END

*D_NET TAUNET_13 1.3760
*CONN
*I inst_22979:ZN O
*I TAUGATE_13:A I
*CAP
1 inst_22979:ZN 0.2110
2 TAUNET_13:1 0.3070
3 TAUNET_13:2 0.3583
4 TAUNET_13:3 0.1395
5 TAUNET_13:4 0.0646
6 TAUNET_13:5 0.0794
7 TAUGATE_13:A 0.2161
*RES
2 inst_22979:ZN TAUNET_13:1 0.1614
3 TAUNET_13:1 TAUNET_13:2 0.3312
4 TAUNET_13:2 TAUNET_13:3 0.3755
5 TAUNET_13:3 TAUNET_13:4 0.4644
6 TAUNET_13:4 TAUNET_13:5 0.4559
7 TAUNET_13:5 TAUGATE_13:A 0.4050
*END

*D_NET TAUNET_12 0.4849
*CONN
*I inst_6354:ZN O
*I TAUGATE_12:A I
*CAP
1 inst_6354:ZN 0.1670
2 TAUNET_12:1 0.2440
3 TAUNET_12:2 0.0332
4 TAUGATE_12:A 0.0406
*RES
2 inst_6354:ZN TAUNET_12:1 0.2732
3 TAUNET_12:1 TAUNET_12:2 0.0073
4 TAUNET_12:2 TAUGATE_12:A 0.1308
*END

*D_NET x8499 13.9736
*CONN
*I TAUGATE_38:Z O
*I inst_84907:B1 I
*I inst_85110:B1 I
*I inst_85023:B1 I
*I inst_84986:B1 I
*I inst_84877:B1 I
*I inst_87969:A1 I
*I inst_85031:B1 I
*I inst_84929:A1 I
*I inst_67435:A I
*I inst_84863:B1 I
*I inst_85053:B1 I
*CAP
1 TAUGATE_38:Z 0.2909
2 x8499:1 0.0740
3 x8499:2 0.4871
4 x8499:3 0.4951
5 x8499:4 0.4125
6 inst_84986:B1 0.0565
7 x8499:5 0.4708
8 x8499:6 0.3056
9 x8499:7 0.3464
10 x8499:8 0.0305
11 inst_85110:B1 0.2383
12 x8499:9 0.3833
13 x8499:10 0.3292
14 x8499:11 0.0716
15 x8499:12 0.2236
16 inst_85023:B1 0.1922
17 x8499:13 0.2927
18 x8499:14 0.3943
19 x8499:15 0.2211
20 inst_84907:B1 0.1955
21 x8499:16 0.2621
22 x8499:17 0.4792
23 x8499:18 0.1808
24 x8499:19 0.0717
25 inst_84877:B1 0.3990
26 x8499:20 0.2022
27 x8499:21 0.1593
28 x8499:22 0.4382
29 inst_87969:A1 0.3498
30 x8499:23 0.2503
31 inst_85031:B1 0.4700
32 x8499:24 0.1782
33 x8499:25 0.4734
34 x8499:26 0.0376
35 x8499:27 0.0972
36 x8499:28 0.3594
37 inst_84929:A1 0.0525
38 x8499:29 0.4670
39 x8499:30 0.1921
40 x8499:31 0.1376
41 inst_67435:A 0.4443
42 x8499:32 0.4814
43 x8499:33 0.1341
44 x8499:34 0.3915
45 x8499:35 0.0282
46 inst_84863:B1 0.3089
47 x8499:36 0.2288
48 x8499:37 0.0666
49 x8499:38 0.3854
50 x8499:39 0.3580
51 inst_85053:B1 0.3774
*RES
2 TAUGATE_38:Z x8499:1 0.1285
3 x8499:1 x8499:2 0.0292
4 x8499:2 x8499:3 0.2926
5 x8499:3 x8499:4 0.4507
6 x8499:4 inst_84986:B1 0.3356
7 x8499:4 x8499:5 0.4020
8 x8499:5 x8499:6 0.2529
9 x8499:6 x8499:7 0.2665
10 x8499:7 x8499:8 0.4354
11 x8499:8 inst_85110:B1 0.1977
12 x8499:1 x8499:9 0.2805
13 x8499:9 x8499:10 0.1322
14 x8499:10 x8499:11 0.1905
15 x8499:11 x8499:12 0.4017
16 x8499:12 inst_85023:B1 0.4680
17 x8499:8 x8499:13 0.1868
18 x8499:13 x8499:14 0.4889
19 x8499:14 x8499:15 0.0703
20 x8499:15 inst_84907:B1 0.3298
21 x8499:13 x8499:16 0.4035
22 x8499:16 x8499:17 0.0219
23 x8499:17 x8499:18 0.0830
24 x8499:18 x8499:19 0.4539
25 x8499:19 inst_84877:B1 0.1250
26 x8499:14 x8499:20 0.4055
27 x8499:20 x8499:21 0.4519
28 x8499:21 x8499:22 0.4658
29 x8499:22 inst_87969:A1 0.3690
30 x8499:19 x8499:23 0.3789
31 x8499:23 inst_85031:B1 0.3545
32 x8499:5 x8499:24 0.3248
33 x8499:24 x8499:25 0.2597
34 x8499:25 x8499:26 0.1267
35 x8499:26 x8499:27 0.3840
36 x8499:27 x8499:28 0.2434
37 x8499:28 inst_84929:A1 0.3726
38 x8499:17 x8499:29 0.1288
39 x8499:29 x8499:30 0.3022
40 x8499:30 x8499:31 0.1405
41 x8499:31 inst_67435:A 0.0668
42 x8499:26 x8499:32 0.0253
43 x8499:32 x8499:33 0.3105
44 x8499:33 x8499:34 0.1881
45 x8499:34 x8499:35 0.2034
46 x8499:35 inst_84863:B1 0.1592
47 x8499:20 x8499:36 0.2731
48 x8499:36 x8499:37 0.1525
49 x8499:37 x8499:38 0.0518
50 x8499:38 x8499:39 0.2548
51 x8499:39 inst_85053:B1 0.2154
*END

*D_NET net_18987 1.7233
*CONN
*I TAUGATE_47:Z O
*I inst_13091:A1 I
*I inst_57653:A I
*CAP
1 TAUGATE_47:Z 0.1648
2 net_18987:1 0.0112
3 net_18987:2 0.3530
4 inst_57653:A 0.1128
5 net_18987:3 0.1620
6 net_18987:4 0.0029
7 net_18987:5 0.2883
8 net_18987:6 0.1903
9 inst_13091:A1 0.4381
*RES
2 TAUGATE_47:Z net_18987:1 0.2239
3 net_18987:1 net_18987:2 0.0917
4 net_18987:2 inst_57653:A 0.4230
5 net_18987:1 net_18987:3 0.3484
6 net_18987:3 net_18987:4 0.0801
7 net_18987:4 net_18987:5 0.1392
8 net_18987:5 net_18987:6 0.1891
9 net_18987:6 inst_13091:A1 0.0464
*END

*D_NET net_87999 1.5122
*CONN
*I TAUGATE_55:Z O
*I inst_86949:B1 I
*I inst_3973:D I
*CAP
1 TAUGATE_55:Z 0.0279
2 net_87999:1 0.0649
3 net_87999:2 0.0510
4 net_87999:3 0.1600
5 net_87999:4 0.1748
6 net_87999:5 0.4787
7 inst_86949:B1 0.1076
8 net_87999:6 0.3644
9 inst_3973:D 0.0829
*RES
2 TAUGATE_55:Z net_87999:1 0.4606
3 net_87999:1 net_87999:2 0.3388
4 net_87999:2 net_87999:3 0.4657
5 net_87999:3 net_87999:4 0.3595
6 net_87999:4 net_87999:5 0.2471
7 net_87999:5 inst_86949:B1 0.0832
8 net_87999:5 net_87999:6 0.1977
9 net_87999:6 inst_3973:D 0.4694
*END

*D_NET net_12148 3.8144
*CONN
*I TAUGATE_25:Z O
*I inst_5994:B1 I
*I inst_4832:B1 I
*CAP
1 TAUGATE_25:Z 0.3882
2 net_12148:1 0.0413
3 net_12148:2 0.4651
4 net_12148:3 0.4065
5 net_12148:4 0.3164
6 net_12148:5 0.3513
7 inst_4832:B1 0.1165
8 net_12148:6 0.2613
9 net_12148:7 0.3587
10 net_12148:8 0.1869
11 net_12148:9 0.4974
12 net_12148:10 0.3047
13 inst_5994:B1 0.1200
*RES
2 TAUGATE_25:Z net_12148:1 0.0986
3 net_12148:1 net_12148:2 0.2243
4 net_12148:2 net_12148:3 0.1286
5 net_12148:3 net_12148:4 0.4269
6 net_12148:4 net_12148:5 0.2482
7 net_12148:5 inst_4832:B1 0.2195
8 net_12148:2 net_12148:6 0.4969
9 net_12148:6 net_12148:7 0.1210
10 net_12148:7 net_12148:8 0.1733
11 net_12148:8 net_12148:9 0.1014
12 net_12148:9 net_12148:10 0.0283
13 net_12148:10 inst_5994:B1 0.2763
*END

*D_NET net_35198 1.7303
*CONN
*I TAUGATE_20:Z O
*I inst_53665:A1 I
*I inst_27841:A1 I
*CAP
1 TAUGATE_20:Z 0.3177
2 net_35198:1 0.3390
3 net_35198:2 0.2046
4 net_35198:3 0.3404
5 inst_27841:A1 0.1317
6 net_35198:4 0.1253
7 inst_53665:A1 0.2716
*RES
2 TAUGATE_20:Z net_35198:1 0.3617
3 net_35198:1 net_35198:2 0.0856
4 net_35198:2 net_35198:3 0.3629
5 net_35198:3 inst_27841:A1 0.2821
6 net_35198:3 net_35198:4 0.3735
7 net_35198:4 inst_53665:A1 0.1079
*END

*D_NET net_42078 1.7060
*CONN
*I TAUGATE_26:Z O
*I inst_26314:A1 I
*I inst_53253:A1 I
*CAP
1 TAUGATE_26:Z 0.2907
2 net_42078:1 0.4966
3 inst_53253:A1 0.4101
4 net_42078:2 0.0485
5 inst_26314:A1 0.4602
*RES
2 TAUGATE_26:Z net_42078:1 0.2702
3 net_42078:1 inst_53253:A1 0.2135
4 net_42078:1 net_42078:2 0.4262
5 net_42078:2 inst_26314:A1 0.2009
*END

*D_NET net_53852 2.9468
*CONN
*I TAUGATE_22:Z O
*I inst_36417:A1 I
*I inst_23707:A1 I
*CAP
1 TAUGATE_22:Z 0.3090
2 net_53852:1 0.4228
3 net_53852:2 0.2443
4 net_53852:3 0.2458
5 net_53852:4 0.3734
6 inst_23707:A1 0.1567
7 net_53852:5 0.0169
8 net_53852:6 0.4026
9 net_53852:7 0.4684
10 net_53852:8 0.2490
11 inst_36417:A1 0.0579
*RES
2 TAUGATE_22:Z net_53852:1 0.1247
3 net_53852:1 net_53852:2 0.2439
4 net_53852:2 net_53852:3 0.2588
5 net_53852:3 net_53852:4 0.4474
6 net_53852:4 inst_23707:A1 0.3528
7 net_53852:2 net_53852:5 0.0423
8 net_53852:5 net_53852:6 0.2861
9 net_53852:6 net_53852:7 0.4278
10 net_53852:7 net_53852:8 0.3875
11 net_53852:8 inst_36417:A1 0.4796
*END

*D_NET net_32376 1.0064
*CONN
*I TAUGATE_39:Z O
*I inst_10214:A I
*CAP
1 TAUGATE_39:Z 0.1554
2 net_32376:1 0.4380
3 inst_10214:A 0.4130
*RES
2 TAUGATE_39:Z net_32376:1 0.4990
3 net_32376:1 inst_10214:A 0.2134
*END

*D_NET TAUNET_35 2.0765
*CONN
*I inst_2128:Q O
*I TAUGATE_35:A I
*CAP
1 inst_2128:Q 0.4947
2 TAUNET_35:1 0.2854
3 TAUNET_35:2 0.4464
4 TAUNET_35:3 0.2438
5 TAUNET_35:4 0.2969
6 TAUGATE_35:A 0.3091
*RES
2 inst_2128:Q TAUNET_35:1 0.5006
3 TAUNET_35:1 TAUNET_35:2 0.2264
4 TAUNET_35:2 TAUNET_35:3 0.3973
5 TAUNET_35:3 TAUNET_35:4 0.2044
6 TAUNET_35:4 TAUGATE_35:A 0.1531
*END

*D_NET net_80113 1.2691
*CONN
*I TAUGATE_29:Z O
*I inst_20024:A2 I
*CAP
1 TAUGATE_29:Z 0.2618
2 net_80113:1 0.4002
3 net_80113:2 0.3652
4 net_80113:3 0.1857
5 inst_20024:A2 0.0562
*RES
2 TAUGATE_29:Z net_80113:1 0.0882
3 net_80113:1 net_80113:2 0.4386
4 net_80113:2 net_80113:3 0.2715
5 net_80113:3 inst_20024:A2 0.0199
*END

*D_NET net_78260 0.5520
*CONN
*I TAUGATE_23:Z O
*I inst_22177:A2 I
*CAP
1 TAUGATE_23:Z 0.1459
2 net_78260:1 0.1026
3 net_78260:2 0.1939
4 inst_22177:A2 0.1095
*RES
2 TAUGATE_23:Z net_78260:1 0.0212
3 net_78260:1 net_78260:2 0.1417
4 net_78260:2 inst_22177:A2 0.2190
*END

*D_NET net_12542 2.5691
*CONN
*I TAUGATE_52:Z O
*I inst_4629:B1 I
*I inst_6360:B1 I
*CAP
1 TAUGATE_52:Z 0.1138
2 net_12542:1 0.3663
3 net_12542:2 0.2540
4 net_12542:3 0.0526
5 net_12542:4 0.2388
6 net_12542:5 0.1787
7 inst_6360:B1 0.3603
8 net_12542:6 0.4441
9 net_12542:7 0.4218
10 net_12542:8 0.0848
11 net_12542:9 0.0266
12 inst_4629:B1 0.0274
*RES
2 TAUGATE_52:Z net_12542:1 0.0603
3 net_12542:1 net_12542:2 0.0863
4 net_12542:2 net_12542:3 0.3102
5 net_12542:3 net_12542:4 0.1239
6 net_12542:4 net_12542:5 0.2473
7 net_12542:5 inst_6360:B1 0.0055
8 net_12542:3 net_12542:6 0.4218
9 net_12542:6 net_12542:7 0.2061
10 net_12542:7 net_12542:8 0.2110
11 net_12542:8 net_12542:9 0.4583
12 net_12542:9 inst_4629:B1 0.3985
*END

*D_NET net_47210 2.4554
*CONN
*I TAUGATE_24:Z O
*I inst_52618:A1 I
*I inst_27338:A1 I
*CAP
1 TAUGATE_24:Z 0.0725
2 net_47210:1 0.3124
3 net_47210:2 0.3685
4 net_47210:3 0.4317
5 net_47210:4 0.1801
6 net_47210:5 0.2826
7 inst_52618:A1 0.3420
8 net_47210:6 0.0327
9 net_47210:7 0.0608
10 inst_27338:A1 0.3721
*RES
2 TAUGATE_24:Z net_47210:1 0.0965
3 net_47210:1 net_47210:2 0.2555
4 net_47210:2 net_47210:3 0.1304
5 net_47210:3 net_47210:4 0.3675
6 net_47210:4 net_47210:5 0.4634
7 net_47210:5 inst_52618:A1 0.2869
8 net_47210:2 net_47210:6 0.4648
9 net_47210:6 net_47210:7 0.2376
10 net_47210:7 inst_27338:A1 0.1146
*END

*D_NET net_53352 0.6447
*CONN
*I TAUGATE_17:Z O
*I inst_25370:A1 I
*CAP
1 TAUGATE_17:Z 0.1439
2 net_53352:1 0.2502
3 inst_25370:A1 0.2506
*RES
2 TAUGATE_17:Z net_53352:1 0.4486
3 net_53352:1 inst_25370:A1 0.0641
*END

*D_NET TAUNET_46 0.3299
*CONN
*I inst_19503:ZN O
*I TAUGATE_46:A I
*CAP
1 inst_19503:ZN 0.0079
2 TAUNET_46:1 0.2219
3 TAUGATE_46:A 0.1001
*RES
2 inst_19503:ZN TAUNET_46:1 0.2747
3 TAUNET_46:1 TAUGATE_46:A 0.1704
*END

*D_NET TAUNET_24 0.1666
*CONN
*I inst_68395:ZN O
*I TAUGATE_24:A I
*CAP
1 inst_68395:ZN 0.0121
2 TAUNET_24:1 0.0267
3 TAUGATE_24:A 0.1278
*RES
2 inst_68395:ZN TAUNET_24:1 0.1079
3 TAUNET_24:1 TAUGATE_24:A 0.3621
*END

*D_NET TAUNET_16 2.0149
*CONN
*I inst_3137:Q O
*I TAUGATE_16:A I
*CAP
1 inst_3137:Q 0.3490
2 TAUNET_16:1 0.3195
3 TAUNET_16:2 0.4748
4 TAUNET_16:3 0.2505
5 TAUNET_16:4 0.2036
6 TAUNET_16:5 0.3990
7 TAUGATE_16:A 0.0185
*RES
2 inst_3137:Q TAUNET_16:1 0.3777
3 TAUNET_16:1 TAUNET_16:2 0.2437
4 TAUNET_16:2 TAUNET_16:3 0.3641
5 TAUNET_16:3 TAUNET_16:4 0.1411
6 TAUNET_16:4 TAUNET_16:5 0.2452
7 TAUNET_16:5 TAUGATE_16:A 0.2723
*END

*D_NET TAUNET_31 0.3445
*CONN
*I inst_10493:ZN O
*I TAUGATE_31:A I
*CAP
1 inst_10493:ZN 0.2449
2 TAUNET_31:1 0.0917
3 TAUGATE_31:A 0.0078
*RES
2 inst_10493:ZN TAUNET_31:1 0.0227
3 TAUNET_31:1 TAUGATE_31:A 0.0264
*END

*D_NET TAUNET_25 0.9773
*CONN
*I inst_73773:QN O
*I TAUGATE_25:A I
*CAP
1 inst_73773:QN 0.1906
2 TAUNET_25:1 0.0937
3 TAUNET_25:2 0.2944
4 TAUGATE_25:A 0.3987
*RES
2 inst_73773:QN TAUNET_25:1 0.0209
3 TAUNET_25:1 TAUNET_25:2 0.1182
4 TAUNET_25:2 TAUGATE_25:A 0.1067
*END

*D_NET TAUNET_27 2.0282
*CONN
*I inst_81826:QN O
*I TAUGATE_27:A I
*CAP
1 inst_81826:QN 0.3672
2 TAUNET_27:1 0.1157
3 TAUNET_27:2 0.1901
4 TAUNET_27:3 0.2138
5 TAUNET_27:4 0.5008
6 TAUNET_27:5 0.2979
7 TAUGATE_27:A 0.3428
*RES
2 inst_81826:QN TAUNET_27:1 0.2325
3 TAUNET_27:1 TAUNET_27:2 0.2733
4 TAUNET_27:2 TAUNET_27:3 0.1266
5 TAUNET_27:3 TAUNET_27:4 0.3814
6 TAUNET_27:4 TAUNET_27:5 0.1363
7 TAUNET_27:5 TAUGATE_27:A 0.3277
*END

*D_NET net_60850 1.7680
*CONN
*I TAUGATE_37:Z O
*I inst_25316:A2 I
*CAP
1 TAUGATE_37:Z 0.4503
2 net_60850:1 0.1603
3 net_60850:2 0.4423
4 net_60850:3 0.1159
5 net_60850:4 0.4527
6 inst_25316:A2 0.1465
*RES
2 TAUGATE_37:Z net_60850:1 0.1463
3 net_60850:1 net_60850:2 0.4621
4 net_60850:2 net_60850:3 0.4065
5 net_60850:3 net_60850:4 0.0227
6 net_60850:4 inst_25316:A2 0.2236
*END

*D_NET TAUNET_28 1.0395
*CONN
*I inst_13536:ZN O
*I TAUGATE_28:A I
*CAP
1 inst_13536:ZN 0.0715
2 TAUNET_28:1 0.1861
3 TAUNET_28:2 0.4367
4 TAUGATE_28:A 0.3452
*RES
2 inst_13536:ZN TAUNET_28:1 0.0313
3 TAUNET_28:1 TAUNET_28:2 0.1217
4 TAUNET_28:2 TAUGATE_28:A 0.0111
*END

*D_NET TAUNET_57 1.2561
*CONN
*I inst_61928:ZN O
*I TAUGATE_57:A I
*CAP
1 inst_61928:ZN 0.0613
2 TAUNET_57:1 0.4407
3 TAUNET_57:2 0.4978
4 TAUGATE_57:A 0.2563
*RES
2 inst_61928:ZN TAUNET_57:1 0.2595
3 TAUNET_57:1 TAUNET_57:2 0.2603
4 TAUNET_57:2 TAUGATE_57:A 0.2874
*END

*D_NET net_4378 1.0267
*CONN
*I TAUGATE_40:Z O
*I inst_60255:A I
*CAP
1 TAUGATE_40:Z 0.2768
2 net_4378:1 0.2053
3 net_4378:2 0.2140
4 inst_60255:A 0.3306
*RES
2 TAUGATE_40:Z net_4378:1 0.1569
3 net_4378:1 net_4378:2 0.2580
4 net_4378:2 inst_60255:A 0.2138
*END

*D_NET TAUNET_37 2.1838
*CONN
*I inst_32671:ZN O
*I TAUGATE_37:A I
*CAP
1 inst_32671:ZN 0.3806
2 TAUNET_37:1 0.4608
3 TAUNET_37:2 0.4692
4 TAUNET_37:3 0.4766
5 TAUNET_37:4 0.0589
6 TAUNET_37:5 0.0962
7 TAUGATE_37:A 0.2415
*RES
2 inst_32671:ZN TAUNET_37:1 0.1750
3 TAUNET_37:1 TAUNET_37:2 0.4103
4 TAUNET_37:2 TAUNET_37:3 0.0845
5 TAUNET_37:3 TAUNET_37:4 0.1888
6 TAUNET_37:4 TAUNET_37:5 0.1436
7 TAUNET_37:5 TAUGATE_37:A 0.1762
*END

*D_NET TAUNET_32 0.3366
*CONN
*I inst_79277:QN O
*I TAUGATE_32:A I
*CAP
1 inst_79277:QN 0.0806
2 TAUNET_32:1 0.2069
3 TAUGATE_32:A 0.0491
*RES
2 inst_79277:QN TAUNET_32:1 0.4137
3 TAUNET_32:1 TAUGATE_32:A 0.3046
*END

*D_NET TAUNET_38 1.0479
*CONN
*P x8499 I
*I TAUGATE_38:A I
*CAP
1 x8499 0.2640
2 TAUNET_38:1 0.4110
3 TAUNET_38:2 0.0191
4 TAUGATE_38:A 0.3538
*RES
2 x8499 TAUNET_38:1 0.4300
3 TAUNET_38:1 TAUNET_38:2 0.3629
4 TAUNET_38:2 TAUGATE_38:A 0.0787
*END

*D_NET net_55848 2.0675
*CONN
*I TAUGATE_30:Z O
*I inst_25086:A1 I
*CAP
1 TAUGATE_30:Z 0.2971
2 net_55848:1 0.5010
3 net_55848:2 0.3538
4 net_55848:3 0.4649
5 net_55848:4 0.0482
6 net_55848:5 0.1062
7 inst_25086:A1 0.2963
*RES
2 TAUGATE_30:Z net_55848:1 0.4911
3 net_55848:1 net_55848:2 0.2002
4 net_55848:2 net_55848:3 0.2573
5 net_55848:3 net_55848:4 0.3761
6 net_55848:4 net_55848:5 0.0616
7 net_55848:5 inst_25086:A1 0.4298
*END

*D_NET net_22537 0.5116
*CONN
*I TAUGATE_10:Z O
*I inst_19270:A4 I
*CAP
1 TAUGATE_10:Z 0.2634
2 net_22537:1 0.0745
3 inst_19270:A4 0.1738
*RES
2 TAUGATE_10:Z net_22537:1 0.4336
3 net_22537:1 inst_19270:A4 0.4556
*END

*D_NET TAUNET_40 1.0764
*CONN
*I inst_75340:QN O
*I TAUGATE_40:A I
*CAP
1 inst_75340:QN 0.0036
2 TAUNET_40:1 0.2737
3 TAUNET_40:2 0.3095
4 TAUGATE_40:A 0.4895
*RES
2 inst_75340:QN TAUNET_40:1 0.4033
3 TAUNET_40:1 TAUNET_40:2 0.2734
4 TAUNET_40:2 TAUGATE_40:A 0.3461
*END

*D_NET net_12370 1.3424
*CONN
*I TAUGATE_27:Z O
*I inst_64659:A I
*CAP
1 TAUGATE_27:Z 0.0418
2 net_12370:1 0.3815
3 net_12370:2 0.1458
4 net_12370:3 0.4915
5 net_12370:4 0.0683
6 inst_64659:A 0.2135
*RES
2 TAUGATE_27:Z net_12370:1 0.4484
3 net_12370:1 net_12370:2 0.1379
4 net_12370:2 net_12370:3 0.1139
5 net_12370:3 net_12370:4 0.0489
6 net_12370:4 inst_64659:A 0.0861
*END

*D_NET TAUNET_20 1.2401
*CONN
*I inst_69956:ZN O
*I TAUGATE_20:A I
*CAP
1 inst_69956:ZN 0.4806
2 TAUNET_20:1 0.1114
3 TAUNET_20:2 0.0198
4 TAUNET_20:3 0.2366
5 TAUNET_20:4 0.1100
6 TAUGATE_20:A 0.2818
*RES
2 inst_69956:ZN TAUNET_20:1 0.3290
3 TAUNET_20:1 TAUNET_20:2 0.1592
4 TAUNET_20:2 TAUNET_20:3 0.4236
5 TAUNET_20:3 TAUNET_20:4 0.3328
6 TAUNET_20:4 TAUGATE_20:A 0.1906
*END

*D_NET net_84757 1.5747
*CONN
*I TAUGATE_28:Z O
*I inst_21637:A1 I
*CAP
1 TAUGATE_28:Z 0.4347
2 net_84757:1 0.1394
3 net_84757:2 0.0096
4 net_84757:3 0.4963
5 net_84757:4 0.2377
6 inst_21637:A1 0.2571
*RES
2 TAUGATE_28:Z net_84757:1 0.3610
3 net_84757:1 net_84757:2 0.0042
4 net_84757:2 net_84757:3 0.2690
5 net_84757:3 net_84757:4 0.3841
6 net_84757:4 inst_21637:A1 0.3400
*END

*D_NET net_8672 1.7839
*CONN
*I TAUGATE_42:Z O
*I inst_17195:A1 I
*I inst_68243:A I
*CAP
1 TAUGATE_42:Z 0.3112
2 net_8672:1 0.4134
3 net_8672:2 0.0741
4 inst_17195:A1 0.4290
5 net_8672:3 0.2112
6 net_8672:4 0.2343
7 inst_68243:A 0.1106
*RES
2 TAUGATE_42:Z net_8672:1 0.4891
3 net_8672:1 net_8672:2 0.0621
4 net_8672:2 inst_17195:A1 0.2122
5 net_8672:1 net_8672:3 0.0283
6 net_8672:3 net_8672:4 0.2644
7 net_8672:4 inst_68243:A 0.3395
*END

*D_NET net_12980 1.7273
*CONN
*I TAUGATE_35:Z O
*I inst_85577:A1 I
*I inst_2128:D I
*CAP
1 TAUGATE_35:Z 0.1311
2 net_12980:1 0.0535
3 net_12980:2 0.0383
4 inst_2128:D 0.2939
5 net_12980:3 0.1825
6 net_12980:4 0.4154
7 net_12980:5 0.4205
8 inst_85577:A1 0.1921
*RES
2 TAUGATE_35:Z net_12980:1 0.2177
3 net_12980:1 net_12980:2 0.0520
4 net_12980:2 inst_2128:D 0.1787
5 net_12980:2 net_12980:3 0.3303
6 net_12980:3 net_12980:4 0.0500
7 net_12980:4 net_12980:5 0.3450
8 net_12980:5 inst_85577:A1 0.2552
*END

*D_NET TAUNET_14 0.9333
*CONN
*I inst_72062:QN O
*I TAUGATE_14:A I
*CAP
1 inst_72062:QN 0.3943
2 TAUNET_14:1 0.3586
3 TAUGATE_14:A 0.1804
*RES
2 inst_72062:QN TAUNET_14:1 0.2132
3 TAUNET_14:1 TAUGATE_14:A 0.3448
*END

*D_NET TAUNET_49 0.6797
*CONN
*I inst_52066:ZN O
*I TAUGATE_49:A I
*CAP
1 inst_52066:ZN 0.0169
2 TAUNET_49:1 0.3418
3 TAUNET_49:2 0.0277
4 TAUNET_49:3 0.2232
5 TAUGATE_49:A 0.0700
*RES
2 inst_52066:ZN TAUNET_49:1 0.3825
3 TAUNET_49:1 TAUNET_49:2 0.4916
4 TAUNET_49:2 TAUNET_49:3 0.0258
5 TAUNET_49:3 TAUGATE_49:A 0.0722
*END

*D_NET net_59335 0.1761
*CONN
*I TAUGATE_51:Z O
*I inst_77989:D I
*CAP
1 TAUGATE_51:Z 0.0274
2 net_59335:1 0.0758
3 inst_77989:D 0.0730
*RES
2 TAUGATE_51:Z net_59335:1 0.2996
3 net_59335:1 inst_77989:D 0.1500
*END

*D_NET net_76456 1.1459
*CONN
*I TAUGATE_54:Z O
*I inst_15198:A1 I
*CAP
1 TAUGATE_54:Z 0.0605
2 net_76456:1 0.4347
3 net_76456:2 0.2976
4 inst_15198:A1 0.3531
*RES
2 TAUGATE_54:Z net_76456:1 0.0316
3 net_76456:1 net_76456:2 0.1823
4 net_76456:2 inst_15198:A1 0.0755
*END

*D_NET TAUNET_50 1.1637
*CONN
*I inst_34337:ZN O
*I TAUGATE_50:A I
*CAP
1 inst_34337:ZN 0.3515
2 TAUNET_50:1 0.4269
3 TAUNET_50:2 0.0493
4 TAUNET_50:3 0.0341
5 TAUGATE_50:A 0.3020
*RES
2 inst_34337:ZN TAUNET_50:1 0.3389
3 TAUNET_50:1 TAUNET_50:2 0.4000
4 TAUNET_50:2 TAUNET_50:3 0.0188
5 TAUNET_50:3 TAUGATE_50:A 0.4709
*END

*D_NET TAUNET_23 0.8262
*CONN
*I inst_23325:ZN O
*I TAUGATE_23:A I
*CAP
1 inst_23325:ZN 0.0122
2 TAUNET_23:1 0.0936
3 TAUNET_23:2 0.3051
4 TAUNET_23:3 0.1197
5 TAUGATE_23:A 0.2956
*RES
2 inst_23325:ZN TAUNET_23:1 0.2210
3 TAUNET_23:1 TAUNET_23:2 0.0970
4 TAUNET_23:2 TAUNET_23:3 0.2798
5 TAUNET_23:3 TAUGATE_23:A 0.3150
*END

*D_NET net_7455 2.7012
*CONN
*I TAUGATE_32:Z O
*I inst_5336:B1 I
*I inst_8739:B1 I
*CAP
1 TAUGATE_32:Z 0.2108
2 net_7455:1 0.0161
3 net_7455:2 0.2047
4 net_7455:3 0.3729
5 net_7455:4 0.0610
6 inst_5336:B1 0.4010
7 net_7455:5 0.3618
8 net_7455:6 0.0820
9 net_7455:7 0.2174
10 net_7455:8 0.3638
11 inst_8739:B1 0.4097
*RES
2 TAUGATE_32:Z net_7455:1 0.2910
3 net_7455:1 net_7455:2 0.3768
4 net_7455:2 net_7455:3 0.3083
5 net_7455:3 net_7455:4 0.1250
6 net_7455:4 inst_5336:B1 0.3526
7 net_7455:4 net_7455:5 0.2418
8 net_7455:5 net_7455:6 0.4080
9 net_7455:6 net_7455:7 0.3118
10 net_7455:7 net_7455:8 0.4981
11 net_7455:8 inst_8739:B1 0.3134
*END

*D_NET net_6519 0.5767
*CONN
*I TAUGATE_58:Z O
*I inst_63567:A I
*CAP
1 TAUGATE_58:Z 0.1396
2 net_6519:1 0.1278
3 inst_63567:A 0.3093
*RES
2 TAUGATE_58:Z net_6519:1 0.3342
3 net_6519:1 inst_63567:A 0.2150
*END

*D_NET TAUNET_39 0.5049
*CONN
*I inst_46320:ZN O
*I TAUGATE_39:A I
*CAP
1 inst_46320:ZN 0.1830
2 TAUNET_39:1 0.0712
3 TAUNET_39:2 0.0044
4 TAUNET_39:3 0.1986
5 TAUGATE_39:A 0.0476
*RES
2 inst_46320:ZN TAUNET_39:1 0.0521
3 TAUNET_39:1 TAUNET_39:2 0.0546
4 TAUNET_39:2 TAUNET_39:3 0.0043
5 TAUNET_39:3 TAUGATE_39:A 0.2737
*END

*D_NET net_13633 2.8084
*CONN
*I TAUGATE_19:Z O
*I inst_86012:A1 I
*I inst_3200:SI I
*CAP
1 TAUGATE_19:Z 0.2677
2 net_13633:1 0.1466
3 net_13633:2 0.2784
4 net_13633:3 0.2008
5 inst_3200:SI 0.3776
6 net_13633:4 0.3567
7 net_13633:5 0.3242
8 net_13633:6 0.2336
9 net_13633:7 0.3863
10 inst_86012:A1 0.2365
*RES
2 TAUGATE_19:Z net_13633:1 0.2937
3 net_13633:1 net_13633:2 0.0093
4 net_13633:2 net_13633:3 0.2822
5 net_13633:3 inst_3200:SI 0.4311
6 net_13633:1 net_13633:4 0.1037
7 net_13633:4 net_13633:5 0.3572
8 net_13633:5 net_13633:6 0.2211
9 net_13633:6 net_13633:7 0.2185
10 net_13633:7 inst_86012:A1 0.2266
*END

*D_NET TAUNET_51 1.9002
*CONN
*I inst_33709:ZN O
*I TAUGATE_51:A I
*CAP
1 inst_33709:ZN 0.1297
2 TAUNET_51:1 0.2417
3 TAUNET_51:2 0.2444
4 TAUNET_51:3 0.4262
5 TAUNET_51:4 0.3737
6 TAUNET_51:5 0.3015
7 TAUGATE_51:A 0.1830
*RES
2 inst_33709:ZN TAUNET_51:1 0.3035
3 TAUNET_51:1 TAUNET_51:2 0.4053
4 TAUNET_51:2 TAUNET_51:3 0.0863
5 TAUNET_51:3 TAUNET_51:4 0.2362
6 TAUNET_51:4 TAUNET_51:5 0.1365
7 TAUNET_51:5 TAUGATE_51:A 0.0277
*END

*D_NET net_46695 0.8486
*CONN
*I TAUGATE_45:Z O
*I inst_25674:A1 I
*CAP
1 TAUGATE_45:Z 0.2912
2 net_46695:1 0.3711
3 net_46695:2 0.0512
4 inst_25674:A1 0.1351
*RES
2 TAUGATE_45:Z net_46695:1 0.0984
3 net_46695:1 net_46695:2 0.0368
4 net_46695:2 inst_25674:A1 0.4376
*END

*D_NET net_76639 1.3959
*CONN
*I TAUGATE_12:Z O
*I inst_55253:A I
*CAP
1 TAUGATE_12:Z 0.1283
2 net_76639:1 0.3234
3 net_76639:2 0.4610
4 inst_55253:A 0.4832
*RES
2 TAUGATE_12:Z net_76639:1 0.2776
3 net_76639:1 net_76639:2 0.3781
4 net_76639:2 inst_55253:A 0.3766
*END

*D_NET net_85276 1.4006
*CONN
*I TAUGATE_59:Z O
*I inst_14048:A1 I
*CAP
1 TAUGATE_59:Z 0.3877
2 net_85276:1 0.3738
3 net_85276:2 0.4556
4 inst_14048:A1 0.1835
*RES
2 TAUGATE_59:Z net_85276:1 0.0020
3 net_85276:1 net_85276:2 0.2614
4 net_85276:2 inst_14048:A1 0.3010
*END

*D_NET TAUNET_19 1.0435
*CONN
*I inst_3200:Q O
*I TAUGATE_19:A I
*CAP
1 inst_3200:Q 0.4372
2 TAUNET_19:1 0.1153
3 TAUNET_19:2 0.3810
4 TAUGATE_19:A 0.1100
*RES
2 inst_3200:Q TAUNET_19:1 0.1662
3 TAUNET_19:1 TAUNET_19:2 0.3178
4 TAUNET_19:2 TAUGATE_19:A 0.2541
*END

*D_NET TAUNET_34 1.5558
*CONN
*I inst_75786:QN O
*I TAUGATE_34:A I
*CAP
1 inst_75786:QN 0.4625
2 TAUNET_34:1 0.0981
3 TAUNET_34:2 0.3461
4 TAUNET_34:3 0.2382
5 TAUGATE_34:A 0.4109
*RES
2 inst_75786:QN TAUNET_34:1 0.0945
3 TAUNET_34:1 TAUNET_34:2 0.2326
4 TAUNET_34:2 TAUNET_34:3 0.0121
5 TAUNET_34:3 TAUGATE_34:A 0.2674
*END

*D_NET net_29023 26.5606
*CONN
*I TAUGATE_21:Z O
*I inst_42459:A2 I
*I inst_42463:A2 I
*I inst_42478:A2 I
*I inst_42465:A2 I
*I inst_42474:A2 I
*I inst_42458:A2 I
*I inst_42464:A2 I
*I inst_42479:A2 I
*I inst_42466:A2 I
*I inst_42461:A2 I
*I inst_41307:A2 I
*I inst_42471:A2 I
*I inst_42468:A2 I
*I inst_42475:A2 I
*I inst_42470:A2 I
*I inst_41302:A2 I
*I inst_42473:A2 I
*I inst_42460:A2 I
*I inst_42462:A2 I
*I inst_42477:A2 I
*I inst_42469:A2 I
*I inst_42476:A2 I
*I inst_42467:A2 I
*I inst_42472:A2 I
*CAP
1 TAUGATE_21:Z 0.0414
2 net_29023:1 0.1970
3 net_29023:2 0.0138
4 net_29023:3 0.4527
5 inst_42461:A2 0.3131
6 net_29023:4 0.3736
7 net_29023:5 0.3306
8 net_29023:6 0.3042
9 net_29023:7 0.1317
10 net_29023:8 0.1481
11 inst_42463:A2 0.2485
12 net_29023:9 0.0047
13 net_29023:10 0.1418
14 inst_42478:A2 0.2138
15 net_29023:11 0.0320
16 net_29023:12 0.2786
17 net_29023:13 0.3378
18 net_29023:14 0.4364
19 inst_42465:A2 0.2454
20 net_29023:15 0.3004
21 net_29023:16 0.3665
22 net_29023:17 0.1341
23 net_29023:18 0.0859
24 net_29023:19 0.1706
25 inst_42474:A2 0.3812
26 net_29023:20 0.3573
27 net_29023:21 0.4559
28 net_29023:22 0.3575
29 net_29023:23 0.1715
30 net_29023:24 0.3050
31 inst_42458:A2 0.3594
32 net_29023:25 0.3308
33 net_29023:26 0.4080
34 net_29023:27 0.4669
35 net_29023:28 0.1932
36 inst_42464:A2 0.0675
37 net_29023:29 0.4574
38 net_29023:30 0.4683
39 net_29023:31 0.1543
40 net_29023:32 0.4873
41 inst_42479:A2 0.1669
42 net_29023:33 0.4210
43 net_29023:34 0.2594
44 net_29023:35 0.3565
45 inst_42466:A2 0.4074
46 net_29023:36 0.3870
47 net_29023:37 0.3663
48 net_29023:38 0.1512
49 net_29023:39 0.1368
50 inst_42459:A2 0.4493
51 net_29023:40 0.0401
52 net_29023:41 0.2861
53 net_29023:42 0.1883
54 net_29023:43 0.3075
55 net_29023:44 0.0604
56 inst_41307:A2 0.3908
57 net_29023:45 0.0492
58 net_29023:46 0.2707
59 inst_42471:A2 0.0711
60 net_29023:47 0.3648
61 net_29023:48 0.4404
62 net_29023:49 0.3187
63 net_29023:50 0.4272
64 net_29023:51 0.0224
65 inst_42468:A2 0.4026
66 net_29023:52 0.1530
67 net_29023:53 0.2582
68 net_29023:54 0.4484
69 inst_42475:A2 0.0762
70 net_29023:55 0.4169
71 net_29023:56 0.3167
72 net_29023:57 0.3376
73 net_29023:58 0.1073
74 net_29023:59 0.3579
75 inst_42470:A2 0.1300
76 net_29023:60 0.0541
77 inst_41302:A2 0.3700
78 net_29023:61 0.0063
79 net_29023:62 0.4904
80 inst_42473:A2 0.0915
81 net_29023:63 0.2231
82 inst_42460:A2 0.2934
83 net_29023:64 0.0765
84 net_29023:65 0.1980
85 net_29023:66 0.3226
86 inst_42462:A2 0.1282
87 net_29023:67 0.4631
88 net_29023:68 0.0407
89 net_29023:69 0.4130
90 net_29023:70 0.3462
91 net_29023:71 0.0714
92 inst_42477:A2 0.2110
93 net_29023:72 0.4333
94 inst_42469:A2 0.0645
95 net_29023:73 0.0924
96 inst_42476:A2 0.1850
97 net_29023:74 0.3754
98 net_29023:75 0.2016
99 inst_42467:A2 0.0068
100 net_29023:76 0.2195
101 net_29023:77 0.2042
102 net_29023:78 0.2030
103 net_29023:79 0.2656
104 inst_42472:A2 0.4413
*RES
2 TAUGATE_21:Z net_29023:1 0.4392
3 net_29023:1 net_29023:2 0.4048
4 net_29023:2 net_29023:3 0.0368
5 net_29023:3 inst_42461:A2 0.3283
6 net_29023:2 net_29023:4 0.2201
7 net_29023:4 net_29023:5 0.2966
8 net_29023:5 net_29023:6 0.3013
9 net_29023:6 net_29023:7 0.0758
10 net_29023:7 net_29023:8 0.0262
11 net_29023:8 inst_42463:A2 0.3812
12 net_29023:1 net_29023:9 0.3805
13 net_29023:9 net_29023:10 0.2523
14 net_29023:10 inst_42478:A2 0.0497
15 net_29023:4 net_29023:11 0.4527
16 net_29023:11 net_29023:12 0.2663
17 net_29023:12 net_29023:13 0.3641
18 net_29023:13 net_29023:14 0.1740
19 net_29023:14 inst_42465:A2 0.2701
20 net_29023:10 net_29023:15 0.0751
21 net_29023:15 net_29023:16 0.1227
22 net_29023:16 net_29023:17 0.0294
23 net_29023:17 net_29023:18 0.0059
24 net_29023:18 net_29023:19 0.3552
25 net_29023:19 inst_42474:A2 0.3839
26 net_29023:8 net_29023:20 0.4902
27 net_29023:20 net_29023:21 0.4716
28 net_29023:21 net_29023:22 0.2112
29 net_29023:22 net_29023:23 0.1762
30 net_29023:23 net_29023:24 0.1166
31 net_29023:24 inst_42458:A2 0.1660
32 net_29023:14 net_29023:25 0.0053
33 net_29023:25 net_29023:26 0.1459
34 net_29023:26 net_29023:27 0.0437
35 net_29023:27 net_29023:28 0.4598
36 net_29023:28 inst_42464:A2 0.3838
37 net_29023:11 net_29023:29 0.4800
38 net_29023:29 net_29023:30 0.4518
39 net_29023:30 net_29023:31 0.0570
40 net_29023:31 net_29023:32 0.4909
41 net_29023:32 inst_42479:A2 0.0572
42 net_29023:7 net_29023:33 0.4309
43 net_29023:33 net_29023:34 0.4474
44 net_29023:34 net_29023:35 0.2931
45 net_29023:35 inst_42466:A2 0.2848
46 net_29023:16 net_29023:36 0.4663
47 net_29023:36 net_29023:37 0.2866
48 net_29023:37 net_29023:38 0.1873
49 net_29023:38 net_29023:39 0.1599
50 net_29023:39 inst_42459:A2 0.3589
51 net_29023:37 net_29023:40 0.2921
52 net_29023:40 net_29023:41 0.4162
53 net_29023:41 net_29023:42 0.1285
54 net_29023:42 net_29023:43 0.0491
55 net_29023:43 net_29023:44 0.3511
56 net_29023:44 inst_41307:A2 0.2111
57 net_29023:27 net_29023:45 0.2365
58 net_29023:45 net_29023:46 0.0021
59 net_29023:46 inst_42471:A2 0.2080
60 net_29023:33 net_29023:47 0.2784
61 net_29023:47 net_29023:48 0.1803
62 net_29023:48 net_29023:49 0.0882
63 net_29023:49 net_29023:50 0.2924
64 net_29023:50 net_29023:51 0.4780
65 net_29023:51 inst_42468:A2 0.3510
66 net_29023:12 net_29023:52 0.1986
67 net_29023:52 net_29023:53 0.3922
68 net_29023:53 net_29023:54 0.3950
69 net_29023:54 inst_42475:A2 0.2666
70 net_29023:44 net_29023:55 0.3795
71 net_29023:55 net_29023:56 0.2362
72 net_29023:56 net_29023:57 0.1908
73 net_29023:57 net_29023:58 0.1996
74 net_29023:58 net_29023:59 0.3123
75 net_29023:59 inst_42470:A2 0.1251
76 net_29023:37 net_29023:60 0.3260
77 net_29023:60 inst_41302:A2 0.3466
78 net_29023:50 net_29023:61 0.4619
79 net_29023:61 net_29023:62 0.1065
80 net_29023:62 inst_42473:A2 0.1990
81 net_29023:33 net_29023:63 0.0661
82 net_29023:63 inst_42460:A2 0.0281
83 net_29023:13 net_29023:64 0.2766
84 net_29023:64 net_29023:65 0.4045
85 net_29023:65 net_29023:66 0.4267
86 net_29023:66 inst_42462:A2 0.4596
87 net_29023:45 net_29023:67 0.2588
88 net_29023:67 net_29023:68 0.0339
89 net_29023:68 net_29023:69 0.0519
90 net_29023:69 net_29023:70 0.4874
91 net_29023:70 net_29023:71 0.0374
92 net_29023:71 inst_42477:A2 0.2489
93 net_29023:38 net_29023:72 0.3416
94 net_29023:72 inst_42469:A2 0.4099
95 net_29023:23 net_29023:73 0.1516
96 net_29023:73 inst_42476:A2 0.2746
97 net_29023:63 net_29023:74 0.2001
98 net_29023:74 net_29023:75 0.4220
99 net_29023:75 inst_42467:A2 0.4926
100 net_29023:9 net_29023:76 0.1336
101 net_29023:76 net_29023:77 0.4042
102 net_29023:77 net_29023:78 0.0451
103 net_29023:78 net_29023:79 0.2391
104 net_29023:79 inst_42472:A2 0.0321
*END

*D_NET TAUNET_54 1.0327
*CONN
*I inst_6433:ZN O
*I TAUGATE_54:A I
*CAP
1 inst_6433:ZN 0.0857
2 TAUNET_54:1 0.2245
3 TAUNET_54:2 0.4797
4 TAUNET_54:3 0.0551
5 TAUGATE_54:A 0.1877
*RES
2 inst_6433:ZN TAUNET_54:1 0.0973
3 TAUNET_54:1 TAUNET_54:2 0.4235
4 TAUNET_54:2 TAUNET_54:3 0.1903
5 TAUNET_54:3 TAUGATE_54:A 0.2143
*END

*D_NET TAUNET_44 1.8683
*CONN
*I inst_55969:ZN O
*I TAUGATE_44:A I
*CAP
1 inst_55969:ZN 0.2421
2 TAUNET_44:1 0.2497
3 TAUNET_44:2 0.2766
4 TAUNET_44:3 0.3086
5 TAUNET_44:4 0.2353
6 TAUNET_44:5 0.4838
7 TAUGATE_44:A 0.0722
*RES
2 inst_55969:ZN TAUNET_44:1 0.3539
3 TAUNET_44:1 TAUNET_44:2 0.3446
4 TAUNET_44:2 TAUNET_44:3 0.0192
5 TAUNET_44:3 TAUNET_44:4 0.1341
6 TAUNET_44:4 TAUNET_44:5 0.4054
7 TAUNET_44:5 TAUGATE_44:A 0.3681
*END

*D_NET net_5792 0.7963
*CONN
*I TAUGATE_14:Z O
*I inst_61114:A I
*CAP
1 TAUGATE_14:Z 0.1561
2 net_5792:1 0.0224
3 net_5792:2 0.3933
4 inst_61114:A 0.2244
*RES
2 TAUGATE_14:Z net_5792:1 0.4154
3 net_5792:1 net_5792:2 0.1374