*SPEF "IEEE 1481-1998"
*DESIGN "changes"
*DATE "Tue Dec 02 20:05:20 2014"
*VENDOR "TAU 2015 Contest"
*PROGRAM "Benchmark Parasitic Generator"
*VERSION "0.0"
*DESIGN_FLOW "NETLIST_TYPE_VERILOG"
*DIVIDER /
*DELIMITER :
*BUS_DELIMITER [ ]
*T_UNIT 1 PS
*C_UNIT 1 FF
*R_UNIT 1 KOHM
*L_UNIT 1 UH

*D_NET net_55824 3.0173
*CONN
*I inst_58452:ZN O
*I inst_35492:A1 I
*I inst_31465:A1 I
*CAP
1 inst_58452:ZN 0.2611
2 net_55824:1 0.4098
3 net_55824:2 0.5009
4 net_55824:3 0.2843
5 inst_35492:A1 0.2878
6 net_55824:4 0.4685
7 net_55824:5 0.3070
8 net_55824:6 0.3583
9 inst_31465:A1 0.1395
*RES
2 inst_58452:ZN net_55824:1 0.1659
3 net_55824:1 net_55824:2 0.2742
4 net_55824:2 net_55824:3 0.3494
5 net_55824:3 inst_35492:A1 0.1485
6 net_55824:3 net_55824:4 0.0646
7 net_55824:4 net_55824:5 0.0794
8 net_55824:5 net_55824:6 0.2161
9 net_55824:6 inst_31465:A1 0.1614
*END

*D_NET net_57167 3.3435
*CONN
*I inst_77238:QN O
*I inst_27465:A1 I
*I inst_52177:A1 I
*CAP
1 inst_77238:QN 0.3755
2 net_57167:1 0.4559
3 net_57167:2 0.4050
4 net_57167:3 0.0154
5 net_57167:4 0.1670
6 net_57167:5 0.1555
7 inst_52177:A1 0.2440
8 net_57167:6 0.0740
9 net_57167:7 0.4871
10 net_57167:8 0.4951
11 net_57167:9 0.4125
12 inst_27465:A1 0.0565
*RES
2 inst_77238:QN net_57167:1 0.0332
3 net_57167:1 net_57167:2 0.0406
4 net_57167:2 net_57167:3 0.2732
5 net_57167:3 net_57167:4 0.0073
6 net_57167:4 net_57167:5 0.1308
7 net_57167:5 inst_52177:A1 0.1374
8 net_57167:4 net_57167:6 0.1285
9 net_57167:6 net_57167:7 0.0292
10 net_57167:7 net_57167:8 0.2926
11 net_57167:8 net_57167:9 0.4507
12 net_57167:9 inst_27465:A1 0.3356
*END

*D_NET net_46559 2.3760
*CONN
*I inst_72100:QN O
*I inst_39360:A1 I
*I inst_28453:A1 I
*CAP
1 inst_72100:QN 0.3845
2 net_46559:1 0.3056
3 net_46559:2 0.3464
4 net_46559:3 0.0305
5 net_46559:4 0.2383
6 net_46559:5 0.4020
7 inst_28453:A1 0.2529
8 net_46559:6 0.2236
9 inst_39360:A1 0.1922
*RES
2 inst_72100:QN net_46559:1 0.2665
3 net_46559:1 net_46559:2 0.4354
4 net_46559:2 net_46559:3 0.1977
5 net_46559:3 net_46559:4 0.0788
6 net_46559:4 net_46559:5 0.3276
7 net_46559:5 inst_28453:A1 0.3833
8 net_46559:4 net_46559:6 0.2805
9 net_46559:6 inst_39360:A1 0.1322
*END

*D_NET net_18049 3.1959
*CONN
*I inst_71604:QN O
*I inst_40609:A1 I
*I inst_18026:A1 I
*CAP
1 inst_71604:QN 0.4017
2 net_18049:1 0.2976
3 net_18049:2 0.2331
4 net_18049:3 0.2927
5 net_18049:4 0.3943
6 net_18049:5 0.2211
7 inst_40609:A1 0.1955
8 net_18049:6 0.1808
9 net_18049:7 0.0717
10 net_18049:8 0.3990
11 net_18049:9 0.4035
12 net_18049:10 0.0219
13 inst_18026:A1 0.0830
*RES
2 inst_71604:QN net_18049:1 0.1868
3 net_18049:1 net_18049:2 0.4889
4 net_18049:2 net_18049:3 0.0703
5 net_18049:3 net_18049:4 0.3298
6 net_18049:4 net_18049:5 0.4131
7 net_18049:5 inst_40609:A1 0.3310
8 net_18049:3 net_18049:6 0.4539
9 net_18049:6 net_18049:7 0.1250
10 net_18049:7 net_18049:8 0.3196
11 net_18049:8 net_18049:9 0.4976
12 net_18049:9 net_18049:10 0.3591
13 net_18049:10 inst_18026:A1 0.2780
*END

*D_NET net_34503 3.7343
*CONN
*I inst_58323:ZN O
*I inst_23164:A1 I
*I inst_45324:A1 I
*CAP
1 inst_58323:ZN 0.1593
2 net_34503:1 0.3498
3 net_34503:2 0.4055
4 net_34503:3 0.4519
5 net_34503:4 0.4658
6 net_34503:5 0.3690
7 inst_23164:A1 0.4019
8 net_34503:6 0.0376
9 net_34503:7 0.0972
10 net_34503:8 0.3594
11 net_34503:9 0.0525
12 net_34503:10 0.3248
13 inst_45324:A1 0.2597
*RES
2 inst_58323:ZN net_34503:1 0.0632
3 net_34503:1 net_34503:2 0.2503
4 net_34503:2 net_34503:3 0.4700
5 net_34503:3 net_34503:4 0.3789
6 net_34503:4 net_34503:5 0.3545
7 net_34503:5 inst_23164:A1 0.1033
8 net_34503:2 net_34503:6 0.1267
9 net_34503:6 net_34503:7 0.3840
10 net_34503:7 net_34503:8 0.2434
11 net_34503:8 net_34503:9 0.3726
12 net_34503:9 net_34503:10 0.2980
13 net_34503:10 inst_45324:A1 0.2454
*END

