*SPEF "IEEE 1481-1998"
*DESIGN "changes"
*DATE "Tue Dec 02 20:05:21 2014"
*VENDOR "TAU 2015 Contest"
*PROGRAM "Benchmark Parasitic Generator"
*VERSION "0.0"
*DESIGN_FLOW "NETLIST_TYPE_VERILOG"
*DIVIDER /
*DELIMITER :
*BUS_DELIMITER [ ]
*T_UNIT 1 PS
*C_UNIT 1 FF
*R_UNIT 1 KOHM
*L_UNIT 1 UH

*D_NET net_80285 1.7439
*CONN
*I inst_23934:ZN O
*I inst_20328:A1 I
*CAP
1 inst_23934:ZN 0.2611
2 net_80285:1 0.4098
3 net_80285:2 0.5009
4 net_80285:3 0.2843
5 inst_20328:A1 0.2878
*RES
2 inst_23934:ZN net_80285:1 0.1659
3 net_80285:1 net_80285:2 0.2742
4 net_80285:2 net_80285:3 0.3494
5 net_80285:3 inst_20328:A1 0.1485
*END

*D_NET net_71473 18.0582
*CONN
*I inst_21249:ZN O
*I inst_27913:A2 I
*I inst_28674:A2 I
*I inst_27972:A2 I
*I inst_27778:A2 I
*I inst_28583:A2 I
*I inst_27244:A2 I
*I inst_26310:A2 I
*I inst_28752:A2 I
*I inst_27870:A2 I
*I inst_26276:A2 I
*I inst_26637:A2 I
*I inst_27187:A2 I
*I inst_26524:A2 I
*I inst_28653:A2 I
*I inst_27571:A2 I
*I inst_27471:A2 I
*I inst_55865:A I
*CAP
1 inst_21249:ZN 0.2110
2 net_71473:1 0.3070
3 net_71473:2 0.3583
4 net_71473:3 0.1395
5 net_71473:4 0.0646
6 net_71473:5 0.0794
7 inst_26637:A2 0.2161
8 net_71473:6 0.2440
9 net_71473:7 0.0332
10 inst_28674:A2 0.0406
11 net_71473:8 0.3706
12 net_71473:9 0.0740
13 net_71473:10 0.4871
14 inst_27972:A2 0.4951
15 net_71473:11 0.3356
16 net_71473:12 0.3995
17 net_71473:13 0.3845
18 net_71473:14 0.4708
19 net_71473:15 0.3056
20 inst_27778:A2 0.3464
21 net_71473:16 0.3276
22 inst_28583:A2 0.3833
23 net_71473:17 0.1322
24 net_71473:18 0.1905
25 net_71473:19 0.4017
26 inst_27244:A2 0.4680
27 net_71473:20 0.1868
28 net_71473:21 0.4889
29 inst_26310:A2 0.0703
30 net_71473:22 0.1808
31 net_71473:23 0.0717
32 net_71473:24 0.3990
33 net_71473:25 0.4035
34 net_71473:26 0.0219
35 inst_28752:A2 0.0830
36 net_71473:27 0.4382
37 net_71473:28 0.3498
38 inst_27870:A2 0.4055
39 net_71473:29 0.2503
40 inst_26276:A2 0.4700
41 net_71473:30 0.1782
42 net_71473:31 0.4734
43 net_71473:32 0.0376
44 net_71473:33 0.0972
45 net_71473:34 0.3594
46 inst_27913:A2 0.0525
47 net_71473:35 0.4670
48 net_71473:36 0.1921
49 net_71473:37 0.1376
50 inst_27187:A2 0.4443
51 net_71473:38 0.4004
52 net_71473:39 0.4814
53 net_71473:40 0.1341
54 net_71473:41 0.3915
55 net_71473:42 0.0282
56 inst_26524:A2 0.3089
57 net_71473:43 0.2288
58 net_71473:44 0.0666
59 net_71473:45 0.3854
60 net_71473:46 0.3580
61 inst_28653:A2 0.3774
62 net_71473:47 0.1855
63 net_71473:48 0.0112
64 inst_27571:A2 0.3530
65 net_71473:49 0.3290
66 net_71473:50 0.1620
67 inst_27471:A2 0.0029
68 net_71473:51 0.1392
69 inst_55865:A 0.1891
*RES
2 inst_21249:ZN net_71473:1 0.1614
3 net_71473:1 net_71473:2 0.3312
4 net_71473:2 net_71473:3 0.3755
5 net_71473:3 net_71473:4 0.4644
6 net_71473:4 net_71473:5 0.4559
7 net_71473:5 inst_26637:A2 0.4050
8 net_71473:2 net_71473:6 0.2732
9 net_71473:6 net_71473:7 0.0073
10 net_71473:7 inst_28674:A2 0.1308
11 net_71473:2 net_71473:8 0.4125
12 net_71473:8 net_71473:9 0.0565
13 net_71473:9 net_71473:10 0.1285
14 net_71473:10 inst_27972:A2 0.0292
15 net_71473:7 net_71473:11 0.0305
16 net_71473:11 net_71473:12 0.2383
17 net_71473:12 net_71473:13 0.4020
18 net_71473:13 net_71473:14 0.2529
19 net_71473:14 net_71473:15 0.2665
20 net_71473:15 inst_27778:A2 0.4354
21 net_71473:6 net_71473:16 0.3292
22 net_71473:16 inst_28583:A2 0.0716
23 net_71473:7 net_71473:17 0.2976
24 net_71473:17 net_71473:18 0.2331
25 net_71473:18 net_71473:19 0.2927
26 net_71473:19 inst_27244:A2 0.3943
27 net_71473:9 net_71473:20 0.3298
28 net_71473:20 net_71473:21 0.4131
29 net_71473:21 inst_26310:A2 0.3310
30 net_71473:12 net_71473:22 0.4539
31 net_71473:22 net_71473:23 0.1250
32 net_71473:23 net_71473:24 0.3196
33 net_71473:24 net_71473:25 0.4976
34 net_71473:25 net_71473:26 0.3591
35 net_71473:26 inst_28752:A2 0.2780
36 net_71473:11 net_71473:27 0.4519
37 net_71473:27 net_71473:28 0.4658
38 net_71473:28 inst_27870:A2 0.3690
39 net_71473:23 net_71473:29 0.3789
40 net_71473:29 inst_26276:A2 0.3545
41 net_71473:7 net_71473:30 0.3248
42 net_71473:30 net_71473:31 0.2597
43 net_71473:31 net_71473:32 0.1267
44 net_71473:32 net_71473:33 0.3840
45 net_71473:33 net_71473:34 0.2434
46 net_71473:34 inst_27913:A2 0.3726
47 net_71473:21 net_71473:35 0.1288
48 net_71473:35 net_71473:36 0.3022
49 net_71473:36 net_71473:37 0.1405
50 net_71473:37 inst_27187:A2 0.0668
51 net_71473:28 net_71473:38 0.0253
52 net_71473:38 net_71473:39 0.3105
53 net_71473:39 net_71473:40 0.1881
54 net_71473:40 net_71473:41 0.2034
55 net_71473:41 net_71473:42 0.1592
56 net_71473:42 inst_26524:A2 0.3147
57 net_71473:23 net_71473:43 0.2731
58 net_71473:43 net_71473:44 0.1525
59 net_71473:44 net_71473:45 0.0518
60 net_71473:45 net_71473:46 0.2548
61 net_71473:46 inst_28653:A2 0.2154
62 net_71473:46 net_71473:47 0.1128
63 net_71473:47 net_71473:48 0.2239
64 net_71473:48 inst_27571:A2 0.0917
65 net_71473:42 net_71473:49 0.2883
66 net_71473:49 net_71473:50 0.1903
67 net_71473:50 inst_27471:A2 0.4381
68 net_71473:35 net_71473:51 0.0464
69 net_71473:51 inst_55865:A 0.0364
*END

*D_NET net_42285 22.9787
*CONN
*I inst_50553:ZN O
*I inst_4640:B2 I
*I inst_4630:B2 I
*I inst_4645:B2 I
*I inst_4627:B2 I
*I inst_4636:B2 I
*I inst_4648:B2 I
*I inst_4649:B2 I
*I inst_4637:B2 I
*I inst_56853:A I
*I inst_4632:B2 I
*I inst_4647:B2 I
*I inst_4634:B2 I
*I inst_4643:B2 I
*I inst_4629:B2 I
*I inst_4626:B2 I
*I inst_4639:B2 I
*I inst_4638:B2 I
*I inst_4644:B2 I
*I inst_4631:B2 I
*I inst_4646:B2 I
*I inst_56893:A I
*I inst_4628:B2 I
*I inst_4642:B2 I
*I inst_4633:B2 I
*I inst_4641:B2 I
*I inst_56852:A I
*I inst_4635:B2 I
*CAP
1 inst_50553:ZN 0.4104
2 net_42285:1 0.0510
3 inst_4630:B2 0.1600
4 net_42285:2 0.0580
5 inst_4640:B2 0.3736
6 net_42285:3 0.3877
7 net_42285:4 0.3882
8 net_42285:5 0.4950
9 net_42285:6 0.0413
10 net_42285:7 0.4651
11 inst_4645:B2 0.4065
12 net_42285:8 0.2195
13 net_42285:9 0.1533
14 net_42285:10 0.4091
15 inst_4627:B2 0.2613
16 net_42285:11 0.1210
17 net_42285:12 0.1733
18 net_42285:13 0.1014
19 net_42285:14 0.0283
20 net_42285:15 0.2763
21 inst_4636:B2 0.2945
22 net_42285:16 0.3629
23 inst_4648:B2 0.2821
24 net_42285:17 0.3735
25 net_42285:18 0.1079
26 net_42285:19 0.3323
27 inst_4649:B2 0.2907
28 net_42285:20 0.2773
29 inst_4637:B2 0.0903
30 net_42285:21 0.3114
31 net_42285:22 0.3090
32 inst_56853:A 0.3972
33 net_42285:23 0.1247
34 net_42285:24 0.2439
35 inst_4632:B2 0.2588
36 net_42285:25 0.3275
37 net_42285:26 0.0169
38 inst_4647:B2 0.4026
39 net_42285:27 0.4278
40 net_42285:28 0.3875
41 net_42285:29 0.4796
42 inst_4634:B2 0.3740
43 net_42285:30 0.4947
44 net_42285:31 0.3666
45 inst_4643:B2 0.2854
46 net_42285:32 0.2264
47 net_42285:33 0.3973
48 net_42285:34 0.2044
49 net_42285:35 0.1531
50 net_42285:36 0.3886
51 inst_4629:B2 0.2618
52 net_42285:37 0.4145
53 inst_4626:B2 0.1459
54 net_42285:38 0.1417
55 inst_4639:B2 0.2190
56 net_42285:39 0.0526
57 net_42285:40 0.2388
58 net_42285:41 0.1787
59 inst_4638:B2 0.3603
60 net_42285:42 0.4935
61 inst_4644:B2 0.2412
62 net_42285:43 0.0266
63 inst_4631:B2 0.0274
64 net_42285:44 0.0145
65 net_42285:45 0.0725
66 net_42285:46 0.4492
67 net_42285:47 0.3124
68 inst_4646:B2 0.3685
69 net_42285:48 0.4634
70 net_42285:49 0.2869
71 net_42285:50 0.1646
72 net_42285:51 0.1182
73 inst_56893:A 0.0327
74 net_42285:52 0.2506
75 net_42285:53 0.4486
76 net_42285:54 0.0641
77 inst_4628:B2 0.0138
78 net_42285:55 0.2303
79 net_42285:56 0.0121
80 inst_4642:B2 0.0620
81 net_42285:57 0.3490
82 net_42285:58 0.4751
83 inst_4633:B2 0.3195
84 net_42285:59 0.3777
85 inst_4641:B2 0.2437
86 net_42285:60 0.2449
87 net_42285:61 0.0406
88 net_42285:62 0.0917
89 inst_56852:A 0.0078
90 net_42285:63 0.2944
91 inst_4635:B2 0.3987
*RES
2 inst_50553:ZN net_42285:1 0.1748
3 net_42285:1 inst_4630:B2 0.4787
4 net_42285:1 net_42285:2 0.0395
5 net_42285:2 inst_4640:B2 0.3644
6 net_42285:1 net_42285:3 0.3164
7 net_42285:3 net_42285:4 0.3513
8 net_42285:4 net_42285:5 0.1165
9 net_42285:5 net_42285:6 0.0986
10 net_42285:6 net_42285:7 0.2243
11 net_42285:7 inst_4645:B2 0.1286
12 net_42285:7 net_42285:8 0.3587
13 net_42285:8 net_42285:9 0.1869
14 net_42285:9 net_42285:10 0.4974
15 net_42285:10 inst_4627:B2 0.3047
16 net_42285:2 net_42285:11 0.3177
17 net_42285:11 net_42285:12 0.2101
18 net_42285:12 net_42285:13 0.3390
19 net_42285:13 net_42285:14 0.2046
20 net_42285:14 net_42285:15 0.3404
21 net_42285:15 inst_4636:B2 0.1317
22 net_42285:11 net_42285:16 0.3900
23 net_42285:16 inst_4648:B2 0.0557
24 net_42285:3 net_42285:17 0.0362
25 net_42285:17 net_42285:18 0.4966
26 net_42285:18 net_42285:19 0.4101
27 net_42285:19 inst_4649:B2 0.2702
28 net_42285:8 net_42285:20 0.0485
29 net_42285:20 inst_4637:B2 0.4602
30 net_42285:18 net_42285:21 0.4228
31 net_42285:21 net_42285:22 0.2443
32 net_42285:22 inst_56853:A 0.2458
33 net_42285:17 net_42285:23 0.4474
34 net_42285:23 net_42285:24 0.3528
35 net_42285:24 inst_4632:B2 0.0472
36 net_42285:22 net_42285:25 0.4684
37 net_42285:25 net_42285:26 0.2490
38 net_42285:26 inst_4647:B2 0.0579
39 net_42285:2 net_42285:27 0.1554
40 net_42285:27 net_42285:28 0.0209
41 net_42285:28 net_42285:29 0.4380
42 net_42285:29 inst_4634:B2 0.4130
43 net_42285:13 net_42285:30 0.4464
44 net_42285:30 net_42285:31 0.2438
45 net_42285:31 inst_4643:B2 0.2969
46 net_42285:20 net_42285:32 0.2468
47 net_42285:32 net_42285:33 0.4002
48 net_42285:33 net_42285:34 0.3652
49 net_42285:34 net_42285:35 0.1857
50 net_42285:35 net_42285:36 0.0562
51 net_42285:36 inst_4629:B2 0.0882
52 net_42285:20 net_42285:37 0.1130
53 net_42285:37 inst_4626:B2 0.1026
54 net_42285:8 net_42285:38 0.4826
55 net_42285:38 inst_4639:B2 0.1138
56 net_42285:29 net_42285:39 0.0603
57 net_42285:39 net_42285:40 0.0863
58 net_42285:40 net_42285:41 0.3102
59 net_42285:41 inst_4638:B2 0.1239
60 net_42285:21 net_42285:42 0.3995
61 net_42285:42 inst_4644:B2 0.4441
62 net_42285:37 net_42285:43 0.4218
63 net_42285:43 inst_4631:B2 0.2061
64 net_42285:41 net_42285:44 0.4317
65 net_42285:44 net_42285:45 0.1801
66 net_42285:45 net_42285:46 0.2826
67 net_42285:46 net_42285:47 0.3420
68 net_42285:47 inst_4646:B2 0.0965
69 net_42285:13 net_42285:48 0.0608
70 net_42285:48 net_42285:49 0.3721
71 net_42285:49 net_42285:50 0.4648
72 net_42285:50 net_42285:51 0.2376
73 net_42285:51 inst_56893:A 0.1146
74 net_42285:2 net_42285:52 0.0079
75 net_42285:52 net_42285:53 0.0204
76 net_42285:53 net_42285:54 0.2219
77 net_42285:54 inst_4628:B2 0.1001
78 net_42285:30 net_42285:55 0.0267
79 net_42285:55 net_42285:56 0.1278
80 net_42285:56 inst_4642:B2 0.1079
81 net_42285:41 net_42285:57 0.4748
82 net_42285:57 net_42285:58 0.2505
83 net_42285:58 inst_4633:B2 0.2036
84 net_42285:47 net_42285:59 0.3641
85 net_42285:59 inst_4641:B2 0.1411
86 net_42285:33 net_42285:60 0.0227
87 net_42285:60 net_42285:61 0.0264
88 net_42285:61 net_42285:62 0.0174
89 net_42285:62 inst_56852:A 0.1906
90 net_42285:20 net_42285:63 0.0209
91 net_42285:63 inst_4635:B2 0.1182
*END

*D_NET net_44514 3.0637
*CONN
*I inst_80384:QN O
*I inst_37543:A1 I
*I inst_40204:A1 I
*CAP
1 inst_80384:QN 0.4881
2 net_44514:1 0.4629
3 net_44514:2 0.1157
4 net_44514:3 0.1901
5 net_44514:4 0.2138
6 inst_37543:A1 0.5008
7 net_44514:5 0.3277
8 net_44514:6 0.3144
9 inst_40204:A1 0.4503
*RES
2 inst_80384:QN net_44514:1 0.2979
3 net_44514:1 net_44514:2 0.3428
4 net_44514:2 net_44514:3 0.2325
5 net_44514:3 net_44514:4 0.2733
6 net_44514:4 inst_37543:A1 0.1266
7 net_44514:4 net_44514:5 0.3676
8 net_44514:5 net_44514:6 0.1603
9 net_44514:6 inst_40204:A1 0.4423
*END

*D_NET net_14785 2.2808
*CONN
*I inst_1477:Q O
*I inst_1477:D I
*I inst_85347:A1 I
*CAP
1 inst_1477:Q 0.4527
2 net_14785:1 0.1463
3 net_14785:2 0.4621
4 inst_1477:D 0.4065
5 net_14785:3 0.4367
6 net_14785:4 0.3452
7 inst_85347:A1 0.0313
*RES
2 inst_1477:Q net_14785:1 0.0227
3 net_14785:1 net_14785:2 0.2236
4 net_14785:2 inst_1477:D 0.4114
5 net_14785:1 net_14785:3 0.1217
6 net_14785:3 net_14785:4 0.0111
7 net_14785:4 inst_85347:A1 0.1222
*END

*D_NET net_59073 2.0377
*CONN
*I inst_33914:ZN O
*I inst_78744:D I
*CAP
1 inst_33914:ZN 0.1692
2 net_59073:1 0.4978
3 net_59073:2 0.2563
4 net_59073:3 0.2595
5 net_59073:4 0.2603
6 net_59073:5 0.2874
7 inst_78744:D 0.3072
*RES
2 inst_33914:ZN net_59073:1 0.2768
3 net_59073:1 net_59073:2 0.1679
4 net_59073:2 net_59073:3 0.2053
5 net_59073:3 net_59073:4 0.2140
6 net_59073:4 net_59073:5 0.3306
7 net_59073:5 inst_78744:D 0.1569
*END

*D_NET net_29219 8.7041
*CONN
*I inst_54798:ZN O
*I inst_13962:A1 I
*I inst_13981:A1 I
*I inst_54678:A I
*I inst_50224:A1 I
*I inst_87931:A1 I
*I inst_49907:A1 I
*I inst_21366:A1 I
*CAP
1 inst_54798:ZN 0.2138
2 net_29219:1 0.3806
3 net_29219:2 0.4946
4 net_29219:3 0.4608
5 net_29219:4 0.4692
6 net_29219:5 0.4766
7 inst_50224:A1 0.0589
8 net_29219:6 0.4748
9 net_29219:7 0.0806
10 inst_13981:A1 0.0407
11 net_29219:8 0.1831
12 net_29219:9 0.4110
13 net_29219:10 0.0191
14 inst_54678:A 0.3538
15 net_29219:11 0.5010
16 net_29219:12 0.3538
17 net_29219:13 0.4649
18 net_29219:14 0.0482
19 net_29219:15 0.1062
20 inst_13962:A1 0.2963
21 net_29219:16 0.0470
22 net_29219:17 0.0745
23 net_29219:18 0.1738
24 inst_87931:A1 0.4336
25 net_29219:19 0.4033
26 net_29219:20 0.2734
27 net_29219:21 0.3461
28 net_29219:22 0.3729
29 net_29219:23 0.0418
30 inst_49907:A1 0.3671
31 net_29219:24 0.0489
32 net_29219:25 0.0861
33 inst_21366:A1 0.1477
*RES
2 inst_54798:ZN net_29219:1 0.0962
3 net_29219:1 net_29219:2 0.2415
4 net_29219:2 net_29219:3 0.1750
5 net_29219:3 net_29219:4 0.4103
6 net_29219:4 net_29219:5 0.0845
7 net_29219:5 inst_50224:A1 0.1888
8 net_29219:1 net_29219:6 0.2069
9 net_29219:6 net_29219:7 0.0491
10 net_29219:7 inst_13981:A1 0.4137
11 net_29219:5 net_29219:8 0.4300
12 net_29219:8 net_29219:9 0.3629
13 net_29219:9 net_29219:10 0.0787
14 net_29219:10 inst_54678:A 0.2007
15 net_29219:7 net_29219:11 0.4911
16 net_29219:11 net_29219:12 0.2002
17 net_29219:12 net_29219:13 0.2573
18 net_29219:13 net_29219:14 0.3761
19 net_29219:14 net_29219:15 0.0616
20 net_29219:15 inst_13962:A1 0.4298
21 net_29219:9 net_29219:16 0.4556
22 net_29219:16 net_29219:17 0.1284
23 net_29219:17 net_29219:18 0.0036
24 net_29219:18 inst_87931:A1 0.1731
25 net_29219:11 net_29219:19 0.3815
26 net_29219:19 net_29219:20 0.1458
27 net_29219:20 net_29219:21 0.4915
28 net_29219:21 net_29219:22 0.0683
29 net_29219:22 net_29219:23 0.2135
30 net_29219:23 inst_49907:A1 0.4484
31 net_29219:7 net_29219:24 0.4806
32 net_29219:24 net_29219:25 0.3473
33 net_29219:25 inst_21366:A1 0.1114
*END

*D_NET net_43106 1.7502
*CONN
*I inst_79413:QN O
*I inst_31290:A1 I
*I inst_40903:A1 I
*CAP
1 inst_79413:QN 0.2366
2 net_43106:1 0.2818
3 net_43106:2 0.3290
4 inst_31290:A1 0.1592
5 net_43106:3 0.0096
6 net_43106:4 0.4963
7 inst_40903:A1 0.2377
*RES
2 inst_79413:QN net_43106:1 0.4236
3 net_43106:1 net_43106:2 0.3328
4 net_43106:2 inst_31290:A1 0.1906
5 net_43106:2 net_43106:3 0.2571
6 net_43106:3 net_43106:4 0.3610
7 net_43106:4 inst_40903:A1 0.0042
*END

*D_NET net_58145 2.1902
*CONN
*I inst_75606:QN O
*I inst_34587:A1 I
*I inst_31902:A1 I
*CAP
1 inst_75606:QN 0.3841
2 net_58145:1 0.2352
3 net_58145:2 0.3112
4 net_58145:3 0.1345
5 net_58145:4 0.4134
6 inst_31902:A1 0.0741
7 net_58145:5 0.2343
8 net_58145:6 0.1106
9 net_58145:7 0.0283
10 inst_34587:A1 0.2644
*RES
2 inst_75606:QN net_58145:1 0.4290
3 net_58145:1 net_58145:2 0.4891
4 net_58145:2 net_58145:3 0.0621
5 net_58145:3 net_58145:4 0.2122
6 net_58145:4 inst_31902:A1 0.2034
7 net_58145:1 net_58145:5 0.3395
8 net_58145:5 net_58145:6 0.4160
9 net_58145:6 net_58145:7 0.1311
10 net_58145:7 inst_34587:A1 0.1702
*END

*D_NET net_42178 36.2739
*CONN
*I inst_54637:ZN O
*I inst_41184:A2 I
*I inst_41204:A2 I
*I inst_41192:A2 I
*I inst_41173:A2 I
*I inst_47837:A2 I
*I inst_56346:A I
*I inst_47835:A2 I
*I inst_47877:A2 I
*I inst_47882:A2 I
*I inst_47838:A2 I
*I inst_11757:B2 I
*I inst_47873:A2 I
*I inst_47875:A2 I
*I inst_47866:A2 I
*I inst_47881:A2 I
*I inst_47834:A2 I
*I inst_11755:B2 I
*I inst_47868:A2 I
*I inst_56460:A I
*I inst_47880:A2 I
*I inst_11756:B2 I
*I inst_47836:A2 I
*I inst_47885:A2 I
*I inst_47883:A2 I
*I inst_56462:A I
*I inst_47869:A2 I
*I inst_11754:B2 I
*I inst_47870:A2 I
*I inst_47871:A2 I
*I inst_47867:A2 I
*I inst_47884:A2 I
*I inst_47876:A2 I
*I inst_47879:A2 I
*I inst_47874:A2 I
*I inst_47878:A2 I
*I inst_56461:A I
*CAP
1 inst_54637:ZN 0.0383
2 net_42178:1 0.2177
3 net_42178:2 0.0520
4 net_42178:3 0.1787
5 inst_41173:A2 0.3277
6 net_42178:4 0.0500
7 net_42178:5 0.3450
8 net_42178:6 0.2552
9 net_42178:7 0.2397
10 inst_41204:A2 0.3943
11 net_42178:8 0.2910
12 inst_41192:A2 0.3418
13 net_42178:9 0.4916
14 net_42178:10 0.0258
15 net_42178:11 0.0722
16 net_42178:12 0.0268
17 inst_41184:A2 0.0274
18 net_42178:13 0.4347
19 net_42178:14 0.2976
20 inst_47837:A2 0.3531
21 net_42178:15 0.2983
22 net_42178:16 0.4269
23 net_42178:17 0.0493
24 net_42178:18 0.0341
25 inst_56346:A 0.3020
26 net_42178:19 0.3051
27 inst_47835:A2 0.1197
28 net_42178:20 0.3150
29 net_42178:21 0.0137
30 net_42178:22 0.2108
31 inst_47877:A2 0.3101
32 net_42178:23 0.3083
33 net_42178:24 0.1250
34 net_42178:25 0.3526
35 net_42178:26 0.3715
36 inst_47882:A2 0.3144
37 net_42178:27 0.3118
38 net_42178:28 0.4981
39 net_42178:29 0.3134
40 net_42178:30 0.4059
41 net_42178:31 0.1396
42 inst_47838:A2 0.0910
43 net_42178:32 0.1986
44 inst_11757:B2 0.0476
45 net_42178:33 0.1466
46 net_42178:34 0.2784
47 net_42178:35 0.2008
48 inst_47873:A2 0.3776
49 net_42178:36 0.3809
50 net_42178:37 0.3567
51 inst_47875:A2 0.3242
52 net_42178:38 0.2211
53 net_42178:39 0.2185
54 net_42178:40 0.2266
55 net_42178:41 0.2538
56 inst_47866:A2 0.1297
57 net_42178:42 0.3035
58 net_42178:43 0.4053
59 inst_47881:A2 0.0863
60 net_42178:44 0.3711
61 net_42178:45 0.0512
62 inst_47834:A2 0.1351
63 net_42178:46 0.1146
64 net_42178:47 0.3234
65 inst_11755:B2 0.4610
66 net_42178:48 0.3877
67 inst_47868:A2 0.1588
68 net_42178:49 0.2164
69 net_42178:50 0.4372
70 net_42178:51 0.1158
71 inst_56460:A 0.1153
72 net_42178:52 0.0981
73 net_42178:53 0.3461
74 net_42178:54 0.2382
75 inst_47880:A2 0.4109
76 net_42178:55 0.1970
77 net_42178:56 0.0138
78 net_42178:57 0.4527
79 inst_11756:B2 0.3131
80 net_42178:58 0.1317
81 net_42178:59 0.1481
82 net_42178:60 0.2485
83 net_42178:61 0.2201
84 inst_47836:A2 0.2966
85 net_42178:62 0.1418
86 inst_47885:A2 0.2138
87 net_42178:63 0.3913
88 net_42178:64 0.2131
89 net_42178:65 0.3201
90 net_42178:66 0.0320
91 net_42178:67 0.2786
92 inst_47883:A2 0.3378
93 net_42178:68 0.4105
94 net_42178:69 0.3004
95 net_42178:70 0.3665
96 net_42178:71 0.1341
97 inst_56462:A 0.0859
98 net_42178:72 0.1840
99 net_42178:73 0.4010
100 net_42178:74 0.3573
101 net_42178:75 0.4559
102 inst_47869:A2 0.3575
103 net_42178:76 0.1166
104 net_42178:77 0.1660
105 inst_11754:B2 0.2177
106 net_42178:78 0.0675
107 net_42178:79 0.0053
108 inst_47870:A2 0.1459
109 net_42178:80 0.1543
110 net_42178:81 0.4873
111 net_42178:82 0.1669
112 net_42178:83 0.4800
113 net_42178:84 0.4518
114 inst_47871:A2 0.0570
115 net_42178:85 0.4309
116 net_42178:86 0.4474
117 net_42178:87 0.2931
118 net_42178:88 0.2848
119 net_42178:89 0.2246
120 inst_47867:A2 0.3320
121 net_42178:90 0.1599
122 net_42178:91 0.3589
123 inst_47884:A2 0.4697
124 net_42178:92 0.0604
125 net_42178:93 0.3908
126 net_42178:94 0.2921
127 net_42178:95 0.4162
128 inst_47876:A2 0.1285
129 net_42178:96 0.0711
130 net_42178:97 0.2365
131 net_42178:98 0.0021
132 inst_47879:A2 0.2080
133 net_42178:99 0.4026
134 inst_47874:A2 0.2784
135 net_42178:100 0.2614
136 net_42178:101 0.1530
137 inst_47878:A2 0.2582
138 net_42178:102 0.4671
139 net_42178:103 0.2972
140 net_42178:104 0.3936
141 net_42178:105 0.4880
142 net_42178:106 0.4169
143 inst_56461:A 0.3167
*RES
2 inst_54637:ZN net_42178:1 0.2308
3 net_42178:1 net_42178:2 0.1825
4 net_42178:2 net_42178:3 0.4154
5 net_42178:3 inst_41173:A2 0.4205
6 net_42178:1 net_42178:4 0.0450
7 net_42178:4 net_42178:5 0.3586
8 net_42178:5 net_42178:6 0.1804
9 net_42178:6 net_42178:7 0.2132
10 net_42178:7 inst_41204:A2 0.3448
11 net_42178:4 net_42178:8 0.0277
12 net_42178:8 inst_41192:A2 0.2232
13 net_42178:1 net_42178:9 0.0955
14 net_42178:9 net_42178:10 0.0758
15 net_42178:10 net_42178:11 0.0730
16 net_42178:11 net_42178:12 0.2996
17 net_42178:12 inst_41184:A2 0.1500
18 net_42178:2 net_42178:13 0.0316
19 net_42178:13 net_42178:14 0.1823
20 net_42178:14 inst_47837:A2 0.0755
21 net_42178:9 net_42178:15 0.3389
22 net_42178:15 net_42178:16 0.4000
23 net_42178:16 net_42178:17 0.0188
24 net_42178:17 net_42178:18 0.4709
25 net_42178:18 inst_56346:A 0.4204
26 net_42178:10 net_42178:19 0.2956
27 net_42178:19 inst_47835:A2 0.2210
28 net_42178:4 net_42178:20 0.0161
29 net_42178:20 net_42178:21 0.2047
30 net_42178:21 net_42178:22 0.3729
31 net_42178:22 inst_47877:A2 0.0610
32 net_42178:13 net_42178:23 0.3618
33 net_42178:23 net_42178:24 0.0820
34 net_42178:24 net_42178:25 0.2174
35 net_42178:25 net_42178:26 0.3638
36 net_42178:26 inst_47882:A2 0.4097
37 net_42178:13 net_42178:27 0.1278
38 net_42178:27 net_42178:28 0.3093
39 net_42178:28 net_42178:29 0.3342
40 net_42178:29 net_42178:30 0.2150
41 net_42178:30 net_42178:31 0.0109
42 net_42178:31 inst_47838:A2 0.1830
43 net_42178:4 net_42178:32 0.0521
44 net_42178:32 inst_11757:B2 0.0546
45 net_42178:18 net_42178:33 0.2937
46 net_42178:33 net_42178:34 0.0093
47 net_42178:34 net_42178:35 0.2822
48 net_42178:35 inst_47873:A2 0.4311
49 net_42178:2 net_42178:36 0.2336
50 net_42178:36 net_42178:37 0.3863
51 net_42178:37 inst_47875:A2 0.2365
52 net_42178:8 net_42178:38 0.4791
53 net_42178:38 net_42178:39 0.2417
54 net_42178:39 net_42178:40 0.2444
55 net_42178:40 net_42178:41 0.4262
56 net_42178:41 inst_47866:A2 0.3737
57 net_42178:25 net_42178:42 0.2362
58 net_42178:42 net_42178:43 0.1365
59 net_42178:43 inst_47881:A2 0.0277
60 net_42178:26 net_42178:44 0.0984
61 net_42178:44 net_42178:45 0.0368
62 net_42178:45 inst_47834:A2 0.4376
63 net_42178:13 net_42178:46 0.4832
64 net_42178:46 net_42178:47 0.2776
65 net_42178:47 inst_11755:B2 0.3781
66 net_42178:36 net_42178:48 0.3738
67 net_42178:48 inst_47868:A2 0.4556
68 net_42178:26 net_42178:49 0.3810
69 net_42178:49 net_42178:50 0.1100
70 net_42178:50 net_42178:51 0.1662
71 net_42178:51 inst_56460:A 0.3178
72 net_42178:48 net_42178:52 0.0945
73 net_42178:52 net_42178:53 0.2326
74 net_42178:53 net_42178:54 0.0121
75 net_42178:54 inst_47880:A2 0.2674
76 net_42178:5 net_42178:55 0.4392
77 net_42178:55 net_42178:56 0.4048
78 net_42178:56 net_42178:57 0.0368
79 net_42178:57 inst_11756:B2 0.3283
80 net_42178:39 net_42178:58 0.3013
81 net_42178:58 net_42178:59 0.0758
82 net_42178:59 net_42178:60 0.0262
83 net_42178:60 net_42178:61 0.3812
84 net_42178:61 inst_47836:A2 0.0656
85 net_42178:19 net_42178:62 0.3805
86 net_42178:62 inst_47885:A2 0.2523
87 net_42178:7 net_42178:63 0.4364
88 net_42178:63 net_42178:64 0.2454
89 net_42178:64 net_42178:65 0.4527
90 net_42178:65 net_42178:66 0.2663
91 net_42178:66 net_42178:67 0.3641
92 net_42178:67 inst_47883:A2 0.1740
93 net_42178:37 net_42178:68 0.1706
94 net_42178:68 net_42178:69 0.3812
95 net_42178:69 net_42178:70 0.0751
96 net_42178:70 net_42178:71 0.1227
97 net_42178:71 inst_56462:A 0.0294
98 net_42178:50 net_42178:72 0.1715
99 net_42178:72 net_42178:73 0.3050
100 net_42178:73 net_42178:74 0.3594
101 net_42178:74 net_42178:75 0.4902
102 net_42178:75 inst_47869:A2 0.4716
103 net_42178:32 net_42178:76 0.2908
104 net_42178:76 net_42178:77 0.3318
105 net_42178:77 inst_11754:B2 0.3308
106 net_42178:72 net_42178:78 0.0437
107 net_42178:78 net_42178:79 0.4598
108 net_42178:79 inst_47870:A2 0.3838
109 net_42178:73 net_42178:80 0.4909
110 net_42178:80 net_42178:81 0.0572
111 net_42178:81 net_42178:82 0.5008
112 net_42178:82 net_42178:83 0.1013
113 net_42178:83 net_42178:84 0.2457
114 net_42178:84 inst_47871:A2 0.4210
115 net_42178:60 net_42178:85 0.3870
116 net_42178:85 net_42178:86 0.3663
117 net_42178:86 net_42178:87 0.1512
118 net_42178:87 net_42178:88 0.1368
119 net_42178:88 net_42178:89 0.4493
120 net_42178:89 inst_47867:A2 0.4663
121 net_42178:50 net_42178:90 0.4844
122 net_42178:90 net_42178:91 0.0401
123 net_42178:91 inst_47884:A2 0.2861
124 net_42178:35 net_42178:92 0.0491
125 net_42178:92 net_42178:93 0.3511
126 net_42178:93 net_42178:94 0.2111
127 net_42178:94 net_42178:95 0.3010
128 net_42178:95 inst_47876:A2 0.1515
129 net_42178:9 net_42178:96 0.3529
130 net_42178:96 net_42178:97 0.4886
131 net_42178:97 net_42178:98 0.3648
132 net_42178:98 inst_47879:A2 0.4404
133 net_42178:84 net_42178:99 0.1803
134 net_42178:99 inst_47874:A2 0.0882
135 net_42178:69 net_42178:100 0.4484
136 net_42178:100 net_42178:101 0.0762
137 net_42178:101 inst_47878:A2 0.1986
138 net_42178:53 net_42178:102 0.3376
139 net_42178:102 net_42178:103 0.1073
140 net_42178:103 net_42178:104 0.3579
141 net_42178:104 net_42178:105 0.1300
142 net_42178:105 net_42178:106 0.3795
143 net_42178:106 inst_56461:A 0.2362
*END

*D_NET net_31640 1.2975
*CONN
*I inst_82484:QN O
*I inst_84541:B1 I
*I inst_46697:A1 I
*CAP
1 inst_82484:QN 0.1996
2 net_31640:1 0.1251
3 net_31640:2 0.0048
4 net_31640:3 0.3126
5 net_31640:4 0.0195
6 inst_84541:B1 0.0541
7 net_31640:5 0.4904
8 inst_46697:A1 0.0915
*RES
2 inst_82484:QN net_31640:1 0.3700
3 net_31640:1 net_31640:2 0.3260
4 net_31640:2 net_31640:3 0.3466
5 net_31640:3 net_31640:4 0.4948
6 net_31640:4 inst_84541:B1 0.4038
7 net_31640:2 net_31640:5 0.4619
8 net_31640:5 inst_46697:A1 0.1065
*END

*D_NET TAUNET_775 0.7741
*CONN
*I inst_21286:ZN O
*I TAUGATE_775:A I
*CAP
1 inst_21286:ZN 0.2576
2 TAUNET_775:1 0.2231
3 TAUGATE_775:A 0.2934
*RES
2 inst_21286:ZN TAUNET_775:1 0.0661
3 TAUNET_775:1 TAUGATE_775:A 0.0281
*END

*D_NET net_46543 2.3199
*CONN
*I inst_72063:QN O
*I inst_26258:A1 I
*I inst_39368:A1 I
*CAP
1 inst_72063:QN 0.2539
2 net_46543:1 0.1980
3 inst_26258:A1 0.3226
4 net_46543:2 0.4631
5 net_46543:3 0.0407
6 net_46543:4 0.4130
7 net_46543:5 0.3462
8 net_46543:6 0.0714
9 inst_39368:A1 0.2110
*RES
2 inst_72063:QN net_46543:1 0.1282
3 net_46543:1 inst_26258:A1 0.2766
4 net_46543:1 net_46543:2 0.2588
5 net_46543:2 net_46543:3 0.0339
6 net_46543:3 net_46543:4 0.0519
7 net_46543:4 net_46543:5 0.4874
8 net_46543:5 net_46543:6 0.0374
9 net_46543:6 inst_39368:A1 0.2489
*END

*D_NET net_41978 26.1714
*CONN
*I inst_50515:ZN O
*I inst_4670:B2 I
*I inst_4666:B2 I
*I inst_4679:B2 I
*I inst_4677:B2 I
*I inst_56826:A I
*I inst_4678:B2 I
*I inst_4683:A2 I
*I inst_4671:A2 I
*I inst_4685:A2 I
*I inst_4669:A2 I
*I inst_4676:A2 I
*I inst_4677:A2 I
*I inst_4672:A2 I
*I inst_45882:A2 I
*I inst_4674:A2 I
*I inst_54765:A I
*I inst_4667:A2 I
*I inst_4668:A2 I
*I inst_4665:A2 I
*I inst_45881:A2 I
*I inst_4681:A2 I
*I inst_4684:A2 I
*I inst_4675:A2 I
*I inst_4680:A2 I
*I inst_4673:A2 I
*I inst_45880:A2 I
*CAP
1 inst_50515:ZN 0.0346
2 net_41978:1 0.0645
3 net_41978:2 0.3416
4 net_41978:3 0.4099
5 net_41978:4 0.1540
6 net_41978:5 0.0325
7 inst_45882:A2 0.0924
8 net_41978:6 0.2001
9 inst_4666:B2 0.4220
10 net_41978:7 0.2030
11 net_41978:8 0.2656
12 net_41978:9 0.4413
13 inst_4679:B2 0.1336
14 net_41978:10 0.2654
15 inst_4677:B2 0.2245
16 net_41978:11 0.4235
17 inst_56826:A 0.1903
18 net_41978:12 0.2766
19 net_41978:13 0.3086
20 net_41978:14 0.2353
21 inst_4678:B2 0.4838
22 net_41978:15 0.3681
23 net_41978:16 0.4419
24 net_41978:17 0.1561
25 net_41978:18 0.1347
26 net_41978:19 0.0224
27 inst_4683:A2 0.3933
28 net_41978:20 0.0071
29 inst_4671:A2 0.2242
30 net_41978:21 0.4721
31 net_41978:22 0.1185
32 net_41978:23 0.4585
33 inst_4685:A2 0.3703
34 net_41978:24 0.1778
35 net_41978:25 0.3155
36 inst_4669:A2 0.4909
37 net_41978:26 0.1815
38 net_41978:27 0.2112
39 net_41978:28 0.3238
40 net_41978:29 0.1536
41 inst_4676:A2 0.2744
42 net_41978:30 0.4392
43 net_41978:31 0.4660
44 net_41978:32 0.3296
45 net_41978:33 0.2711
46 net_41978:34 0.1177
47 inst_4677:A2 0.1130
48 net_41978:35 0.2000
49 net_41978:36 0.4330
50 net_41978:37 0.3792
51 net_41978:38 0.3945
52 net_41978:39 0.1168
53 inst_4672:A2 0.0632
54 net_41978:40 0.0789
55 net_41978:41 0.1418
56 net_41978:42 0.2162
57 net_41978:43 0.3480
58 net_41978:44 0.3423
59 inst_4670:B2 0.3091
60 net_41978:45 0.0694
61 net_41978:46 0.1731
62 net_41978:47 0.0340
63 inst_4674:A2 0.1910
64 net_41978:48 0.0975
65 net_41978:49 0.1398
66 net_41978:50 0.3850
67 inst_54765:A 0.2235
68 net_41978:51 0.3230
69 net_41978:52 0.3040
70 inst_4667:A2 0.3068
71 net_41978:53 0.2553
72 inst_4668:A2 0.4766
73 net_41978:54 0.3838
74 net_41978:55 0.2328
75 net_41978:56 0.0616
76 net_41978:57 0.3670
77 net_41978:58 0.3852
78 inst_4665:A2 0.1467
79 net_41978:59 0.0491
80 net_41978:60 0.0298
81 net_41978:61 0.3266
82 inst_45881:A2 0.3430
83 net_41978:62 0.2980
84 net_41978:63 0.1661
85 net_41978:64 0.4120
86 net_41978:65 0.1627
87 net_41978:66 0.0181
88 inst_4681:A2 0.3748
89 net_41978:67 0.2634
90 inst_4684:A2 0.4707
91 net_41978:68 0.3553
92 net_41978:69 0.1500
93 inst_4675:A2 0.4264
94 net_41978:70 0.0056
95 net_41978:71 0.0020
96 inst_4680:A2 0.0117
97 net_41978:72 0.1876
98 net_41978:73 0.0595
99 net_41978:74 0.2550
100 inst_4673:A2 0.4579
101 net_41978:75 0.3078
102 net_41978:76 0.3570
103 net_41978:77 0.3670
104 net_41978:78 0.0788
105 net_41978:79 0.0125
106 inst_45880:A2 0.4083
*RES
2 inst_50515:ZN net_41978:1 0.1850
3 net_41978:1 net_41978:2 0.1516
4 net_41978:2 net_41978:3 0.2746
5 net_41978:3 net_41978:4 0.4228
6 net_41978:4 net_41978:5 0.1417
7 net_41978:5 inst_45882:A2 0.3754
8 net_41978:2 net_41978:6 0.4926
9 net_41978:6 inst_4666:B2 0.0580
10 net_41978:3 net_41978:7 0.4042
11 net_41978:7 net_41978:8 0.0451
12 net_41978:8 net_41978:9 0.2391
13 net_41978:9 inst_4679:B2 0.0321
14 net_41978:8 net_41978:10 0.4797
15 net_41978:10 inst_4677:B2 0.0551
16 net_41978:5 net_41978:11 0.2143
17 net_41978:11 inst_56826:A 0.0701
18 net_41978:11 net_41978:12 0.0722
19 net_41978:12 net_41978:13 0.3539
20 net_41978:13 net_41978:14 0.3446
21 net_41978:14 inst_4678:B2 0.0192
22 net_41978:5 net_41978:15 0.2244
23 net_41978:15 net_41978:16 0.4154
24 net_41978:16 net_41978:17 0.1374
25 net_41978:17 net_41978:18 0.1713
26 net_41978:18 net_41978:19 0.2153
27 net_41978:19 inst_4683:A2 0.3119
28 net_41978:14 net_41978:20 0.4834
29 net_41978:20 inst_4671:A2 0.4589