*SPEF "IEEE 1481-1998"
*DESIGN "changes"
*DATE "Tue Dec 02 20:48:51 2014"
*VENDOR "TAU 2015 Contest"
*PROGRAM "Benchmark Parasitic Generator"
*VERSION "0.0"
*DESIGN_FLOW "NETLIST_TYPE_VERILOG"
*DIVIDER /
*DELIMITER :
*BUS_DELIMITER [ ]
*T_UNIT 1 PS
*C_UNIT 1 FF
*R_UNIT 1 KOHM
*L_UNIT 1 UH

*D_NET TAUNET_4 1.7439
*CONN
*I g2062_u0:o O
*I TAUGATE_4:a I
*CAP
1 g2062_u0:o 0.2611
2 TAUNET_4:1 0.4098
3 TAUNET_4:2 0.5009
4 TAUNET_4:3 0.2843
5 TAUGATE_4:a 0.2878
*RES
2 g2062_u0:o TAUNET_4:1 0.1659
3 TAUNET_4:1 TAUNET_4:2 0.2742
4 TAUNET_4:2 TAUNET_4:3 0.3494
5 TAUNET_4:3 TAUGATE_4:a 0.1485
*END

*D_NET TAUNET_2 1.3760
*CONN
*I i_tx_phy_hold_reg_d_reg_1__u1:o O
*I TAUGATE_2:a I
*CAP
1 i_tx_phy_hold_reg_d_reg_1__u1:o 0.2110
2 TAUNET_2:1 0.3070
3 TAUNET_2:2 0.3583
4 TAUNET_2:3 0.1395
5 TAUNET_2:4 0.0646
6 TAUNET_2:5 0.0794
7 TAUGATE_2:a 0.2161
*RES
2 i_tx_phy_hold_reg_d_reg_1__u1:o TAUNET_2:1 0.1614
3 TAUNET_2:1 TAUNET_2:2 0.3312
4 TAUNET_2:2 TAUNET_2:3 0.3755
5 TAUNET_2:3 TAUNET_2:4 0.4644
6 TAUNET_2:4 TAUNET_2:5 0.4559
7 TAUNET_2:5 TAUGATE_2:a 0.4050
*END

*D_NET TAUNET_3 0.4849
*CONN
*I g2128_u1:o O
*I TAUGATE_3:a I
*CAP
1 g2128_u1:o 0.1670
2 TAUNET_3:1 0.2440
3 TAUNET_3:2 0.0332
4 TAUGATE_3:a 0.0406
*RES
2 g2128_u1:o TAUNET_3:1 0.2732
3 TAUNET_3:1 TAUNET_3:2 0.0073
4 TAUNET_3:2 TAUGATE_3:a 0.1308
*END

*D_NET i_tx_phy_hold_reg_d_11 1.8161
*CONN
*I TAUGATE_2:o O
*I g2054_u0:b I
*CAP
1 TAUGATE_2:o 0.2909
2 i_tx_phy_hold_reg_d_11:1 0.0740
3 i_tx_phy_hold_reg_d_11:2 0.4871
4 i_tx_phy_hold_reg_d_11:3 0.4951
5 i_tx_phy_hold_reg_d_11:4 0.4125
6 g2054_u0:b 0.0565
*RES
2 TAUGATE_2:o i_tx_phy_hold_reg_d_11:1 0.1285
3 i_tx_phy_hold_reg_d_11:1 i_tx_phy_hold_reg_d_11:2 0.0292
4 i_tx_phy_hold_reg_d_11:2 i_tx_phy_hold_reg_d_11:3 0.2926
5 i_tx_phy_hold_reg_d_11:3 i_tx_phy_hold_reg_d_11:4 0.4507
6 i_tx_phy_hold_reg_d_11:4 g2054_u0:b 0.3356
*END

*D_NET n_204 1.9602
*CONN
*I TAUGATE_4:o O
*I g1968_u0:a I
*CAP
1 TAUGATE_4:o 0.3845
2 n_204:1 0.3056
3 n_204:2 0.3464
4 n_204:3 0.0305
5 n_204:4 0.2383
6 n_204:5 0.4020
7 g1968_u0:a 0.2529
*RES
2 TAUGATE_4:o n_204:1 0.2665
3 n_204:1 n_204:2 0.4354
4 n_204:2 n_204:3 0.1977
5 n_204:3 n_204:4 0.0788
6 n_204:4 n_204:5 0.3276
7 n_204:5 g1968_u0:a 0.3833
*END

*D_NET n_400 8.3371
*CONN
*I TAUGATE_3:o O
*I g1811_u0:b I
*I g2127_u0:a I
*I g1815_u0:a I
*I g1843_u0:a I
*I g1763_u0:a I
*I g1844_u0:a I
*I g1848_u0:a I
*CAP
1 TAUGATE_3:o 0.0716
2 n_400:1 0.1922
3 n_400:2 0.2805
4 n_400:3 0.1322
5 g1763_u0:a 0.1905
6 n_400:4 0.2211
7 n_400:5 0.1955
8 n_400:6 0.1868
9 n_400:7 0.4889
10 g2127_u0:a 0.0703
11 n_400:8 0.3990
12 g1815_u0:a 0.4035
13 n_400:9 0.3196
14 n_400:10 0.4976
15 g1843_u0:a 0.3591
16 n_400:11 0.4055
17 n_400:12 0.4519
18 n_400:13 0.4658
19 n_400:14 0.3690
20 g1811_u0:b 0.4019
21 n_400:15 0.4734
22 n_400:16 0.0376
23 g1844_u0:a 0.0972
24 n_400:17 0.2434
25 n_400:18 0.3726
26 n_400:19 0.2980
27 n_400:20 0.2454
28 g1848_u0:a 0.4670
*RES
2 TAUGATE_3:o n_400:1 0.4017
3 n_400:1 n_400:2 0.4680
4 n_400:2 n_400:3 0.2976
5 n_400:3 g1763_u0:a 0.2331
6 n_400:2 n_400:4 0.3298
7 n_400:4 n_400:5 0.4131
8 n_400:5 n_400:6 0.3310
9 n_400:6 n_400:7 0.2621
10 n_400:7 g2127_u0:a 0.4792
11 n_400:3 n_400:8 0.0219
12 n_400:8 g1815_u0:a 0.0830
13 n_400:8 n_400:9 0.2780
14 n_400:9 n_400:10 0.2022
15 n_400:10 g1843_u0:a 0.1593
16 n_400:10 n_400:11 0.0632
17 n_400:11 n_400:12 0.2503
18 n_400:12 n_400:13 0.4700
19 n_400:13 n_400:14 0.3789
20 n_400:14 g1811_u0:b 0.3545
21 n_400:13 n_400:15 0.3594
22 n_400:15 n_400:16 0.0525
23 n_400:16 g1844_u0:a 0.3248
24 n_400:4 n_400:17 0.1921
25 n_400:17 n_400:18 0.1376
26 n_400:18 n_400:19 0.4443
27 n_400:19 n_400:20 0.1288
28 n_400:20 g1848_u0:a 0.3022
*END

