*SPEF "IEEE 1481-1998"
*DESIGN "changes"
*DATE "Tue Dec 02 20:48:54 2014"
*VENDOR "TAU 2015 Contest"
*PROGRAM "Benchmark Parasitic Generator"
*VERSION "0.0"
*DESIGN_FLOW "NETLIST_TYPE_VERILOG"
*DIVIDER /
*DELIMITER :
*BUS_DELIMITER [ ]
*T_UNIT 1 PS
*C_UNIT 1 FF
*R_UNIT 1 KOHM
*L_UNIT 1 UH

*D_NET n_707 1.7439
*CONN
*I TAUGATE_581:o O
*I g2463_u0:a I
*CAP
1 TAUGATE_581:o 0.2611
2 n_707:1 0.4098
3 n_707:2 0.5009
4 n_707:3 0.2843
5 g2463_u0:a 0.2878
*RES
2 TAUGATE_581:o n_707:1 0.1659
3 n_707:1 n_707:2 0.2742
4 n_707:2 n_707:3 0.3494
5 n_707:3 g2463_u0:a 0.1485
*END

*D_NET n_479 1.3760
*CONN
*I TAUGATE_613:o O
*I g1746_u0:a I
*CAP
1 TAUGATE_613:o 0.2110
2 n_479:1 0.3070
3 n_479:2 0.3583
4 n_479:3 0.1395
5 n_479:4 0.0646
6 n_479:5 0.0794
7 g1746_u0:a 0.2161
*RES
2 TAUGATE_613:o n_479:1 0.1614
3 n_479:1 n_479:2 0.3312
4 n_479:2 n_479:3 0.3755
5 n_479:3 n_479:4 0.4644
6 n_479:4 n_479:5 0.4559
7 n_479:5 g1746_u0:a 0.4050
*END

*D_NET g1778_db 0.4849
*CONN
*I TAUGATE_68:o O
*I g1778_u3:b I
*CAP
1 TAUGATE_68:o 0.1670
2 g1778_db:1 0.2440
3 g1778_db:2 0.0332
4 g1778_u3:b 0.0406
*RES
2 TAUGATE_68:o g1778_db:1 0.2732
3 g1778_db:1 g1778_db:2 0.0073
4 g1778_db:2 g1778_u3:b 0.1308
*END

*D_NET TAUNET_275 1.8161
*CONN
*I g1779_u0:o O
*I TAUGATE_275:a I
*CAP
1 g1779_u0:o 0.2909
2 TAUNET_275:1 0.0740
3 TAUNET_275:2 0.4871
4 TAUNET_275:3 0.4951
5 TAUNET_275:4 0.4125
6 TAUGATE_275:a 0.0565
*RES
2 g1779_u0:o TAUNET_275:1 0.1285
3 TAUNET_275:1 TAUNET_275:2 0.0292
4 TAUNET_275:2 TAUNET_275:3 0.2926
5 TAUNET_275:3 TAUNET_275:4 0.4507
6 TAUNET_275:4 TAUGATE_275:a 0.3356
*END

*D_NET n_990 1.9602
*CONN
*I TAUGATE_221:o O
*I g2671_u0:a I
*CAP
1 TAUGATE_221:o 0.3845
2 n_990:1 0.3056
3 n_990:2 0.3464
4 n_990:3 0.0305
5 n_990:4 0.2383
6 n_990:5 0.4020
7 g2671_u0:a 0.2529
*RES
2 TAUGATE_221:o n_990:1 0.2665
3 n_990:1 n_990:2 0.4354
4 n_990:2 n_990:3 0.1977
5 n_990:3 n_990:4 0.0788
6 n_990:4 n_990:5 0.3276
7 n_990:5 g2671_u0:a 0.3833
*END

*D_NET TAUNET_114 0.8670
*CONN
*I g2063_u3:o O
*I TAUGATE_114:a I
*CAP
1 g2063_u3:o 0.0716
2 TAUNET_114:1 0.1922
3 TAUNET_114:2 0.2805
4 TAUNET_114:3 0.1322
5 TAUGATE_114:a 0.1905
*RES
2 g2063_u3:o TAUNET_114:1 0.4017
3 TAUNET_114:1 TAUNET_114:2 0.4680
4 TAUNET_114:2 TAUNET_114:3 0.2976
5 TAUNET_114:3 TAUGATE_114:a 0.2331
*END

*D_NET n_980 6.6413
*CONN
*I TAUGATE_557:o O
*I g2640_u0:a I
*I g11_u0:a I
*I g2459_u0:b I
*I g2227_u0:a I
*I g2668_u0:a I
*CAP
1 TAUGATE_557:o 0.3943
2 n_980:1 0.1955
3 n_980:2 0.1868
4 n_980:3 0.4889
5 g2459_u0:b 0.0703
6 n_980:4 0.3990
7 g11_u0:a 0.4035
8 n_980:5 0.4976
9 n_980:6 0.3591
10 n_980:7 0.2780
11 n_980:8 0.2022
12 g2640_u0:a 0.1593
13 n_980:9 0.0632
14 n_980:10 0.2503
15 n_980:11 0.4700
16 n_980:12 0.3789
17 n_980:13 0.3545
18 g2227_u0:a 0.1033
19 n_980:14 0.2597
20 n_980:15 0.1267
21 n_980:16 0.3840
22 n_980:17 0.2434
23 g2668_u0:a 0.3726
*RES
2 TAUGATE_557:o n_980:1 0.3298
3 n_980:1 n_980:2 0.4131
4 n_980:2 n_980:3 0.3310
5 n_980:3 g2459_u0:b 0.2621
6 n_980:1 n_980:4 0.0219
7 n_980:4 g11_u0:a 0.0830
8 n_980:1 n_980:5 0.4382
9 n_980:5 n_980:6 0.3498
10 n_980:6 n_980:7 0.4055
11 n_980:7 n_980:8 0.4519
12 n_980:8 g2640_u0:a 0.4658
13 n_980:6 n_980:9 0.4316
14 n_980:9 n_980:10 0.1782
15 n_980:10 n_980:11 0.4734
16 n_980:11 n_980:12 0.0376
17 n_980:12 n_980:13 0.0972
18 n_980:13 g2227_u0:a 0.3594
19 n_980:1 n_980:14 0.2980
20 n_980:14 n_980:15 0.2454
21 n_980:15 n_980:16 0.4670
22 n_980:16 n_980:17 0.1921
23 n_980:17 g2668_u0:a 0.1376
*END

*D_NET n_192 2.1968
*CONN
*I TAUGATE_380:o O
*I g1983_u0:b I
*I g1973_u0:b I
*CAP
1 TAUGATE_380:o 0.1288
2 n_192:1 0.1405
3 n_192:2 0.0668
4 n_192:3 0.3699
5 n_192:4 0.4131
6 g1973_u0:b 0.4004
7 n_192:5 0.2034
8 n_192:6 0.1592
9 g1983_u0:b 0.3147
*RES
2 TAUGATE_380:o n_192:1 0.4814
3 n_192:1 n_192:2 0.1341
4 n_192:2 n_192:3 0.3915
5 n_192:3 n_192:4 0.0282
6 n_192:4 g1973_u0:b 0.3089
7 n_192:3 n_192:5 0.2761
8 n_192:5 n_192:6 0.3643
9 n_192:6 g1983_u0:b 0.2288
*END

*D_NET TAUNET_232 1.4950
*CONN
*I g2069_u0:o O
*I TAUGATE_232:a I
*CAP
1 g2069_u0:o 0.3854
2 TAUNET_232:1 0.3774
3 TAUNET_232:2 0.2731
4 TAUNET_232:3 0.1525
5 TAUNET_232:4 0.0518
6 TAUGATE_232:a 0.2548
*RES
2 g2069_u0:o TAUNET_232:1 0.2154
3 TAUNET_232:1 TAUNET_232:2 0.4921
4 TAUNET_232:2 TAUNET_232:3 0.1648
5 TAUNET_232:3 TAUNET_232:4 0.1855
6 TAUNET_232:4 TAUGATE_232:a 0.0112
*END

*D_NET n_61 1.1059
*CONN
*I TAUGATE_145:o O
*I g2505_u0:a I
*CAP
1 TAUGATE_145:o 0.1128
2 n_61:1 0.0917
3 n_61:2 0.4230
4 n_61:3 0.1494
5 g2505_u0:a 0.3290
*RES
2 TAUGATE_145:o n_61:1 0.1620
3 n_61:1 n_61:2 0.0029
4 n_61:2 n_61:3 0.2883
5 n_61:3 g2505_u0:a 0.1903
*END

*D_NET n_232 0.6766
*CONN
*I TAUGATE_129:o O
*I g1806_u0:a I
*CAP
1 TAUGATE_129:o 0.3484
2 n_232:1 0.1392
3 g1806_u0:a 0.1891
*RES
2 TAUGATE_129:o n_232:1 0.0464
3 n_232:1 g1806_u0:a 0.0364
*END

*D_NET TAUNET_504 0.6214
*CONN
*I g1963_u0:o O
*I TAUGATE_504:a I
*CAP
1 g1963_u0:o 0.4104
2 TAUNET_504:1 0.0510
3 TAUGATE_504:a 0.1600
*RES
2 g1963_u0:o TAUNET_504:1 0.1748
3 TAUNET_504:1 TAUGATE_504:a 0.4787
*END

*D_NET TAUNET_91 1.6741
*CONN
*I FE_RC_0_0:o O
*I TAUGATE_91:a I
*CAP
1 FE_RC_0_0:o 0.4606
2 TAUNET_91:1 0.4657
3 TAUNET_91:2 0.3595
4 TAUNET_91:3 0.2471
5 TAUNET_91:4 0.0832
6 TAUGATE_91:a 0.0580
*RES
2 FE_RC_0_0:o TAUNET_91:1 0.3736
3 TAUNET_91:1 TAUNET_91:2 0.0395
4 TAUNET_91:2 TAUNET_91:3 0.3644
5 TAUNET_91:3 TAUNET_91:4 0.0829
6 TAUNET_91:4 TAUGATE_91:a 0.1977
*END

*D_NET TAUNET_625 2.1119
*CONN
*I g1777_u3:o O
*I TAUGATE_625:a I
*CAP
1 g1777_u3:o 0.3877
2 TAUNET_625:1 0.4950
3 TAUNET_625:2 0.0413
4 TAUNET_625:3 0.4651
5 TAUNET_625:4 0.4065
6 TAUGATE_625:a 0.3164
*RES
2 g1777_u3:o TAUNET_625:1 0.3513
3 TAUNET_625:1 TAUNET_625:2 0.1165
4 TAUNET_625:2 TAUNET_625:3 0.0986
5 TAUNET_625:3 TAUNET_625:4 0.2243
6 TAUNET_625:4 TAUGATE_625:a 0.1286
*END

*D_NET TAUNET_603 1.4306
*CONN
*I g1921_u0:o O
*I TAUGATE_603:a I
*CAP
1 g1921_u0:o 0.2482
2 TAUNET_603:1 0.1533
3 TAUNET_603:2 0.4091
4 TAUNET_603:3 0.2613
5 TAUGATE_603:a 0.3587
*RES
2 g1921_u0:o TAUNET_603:1 0.1869
3 TAUNET_603:1 TAUNET_603:2 0.4974
4 TAUNET_603:2 TAUNET_603:3 0.3047
5 TAUNET_603:3 TAUGATE_603:a 0.1200
*END

*D_NET TAUNET_208 0.5270
*CONN
*I TAUGATE_28:o O
*I TAUGATE_208:a I
*CAP
1 TAUGATE_28:o 0.1210
2 TAUNET_208:1 0.1014
3 TAUNET_208:2 0.0283
4 TAUGATE_208:a 0.2763
*RES
2 TAUGATE_28:o TAUNET_208:1 0.2945
3 TAUNET_208:1 TAUNET_208:2 0.3177
4 TAUNET_208:2 TAUGATE_208:a 0.2101
*END

*D_NET i_rx_phy_bit_cnt_2_ 6.0949
*CONN
*I TAUGATE_696:o O
*I g1744_u0:c I
*I g1881_u1:b I
*I g1902_u0:a I
*I g1824_u0:b I
*I g1881_u0:a I
*CAP
1 TAUGATE_696:o 0.2046
2 i_rx_phy_bit_cnt_2_:1 0.1317
3 i_rx_phy_bit_cnt_2_:2 0.3617
4 i_rx_phy_bit_cnt_2_:3 0.0856
5 i_rx_phy_bit_cnt_2_:4 0.3629
6 g1824_u0:b 0.2821
7 i_rx_phy_bit_cnt_2_:5 0.2907
8 i_rx_phy_bit_cnt_2_:6 0.0362
9 i_rx_phy_bit_cnt_2_:7 0.4966
10 i_rx_phy_bit_cnt_2_:8 0.4101
11 g1881_u1:b 0.2702
12 i_rx_phy_bit_cnt_2_:9 0.3114
13 i_rx_phy_bit_cnt_2_:10 0.3090
14 g1902_u0:a 0.3972
15 i_rx_phy_bit_cnt_2_:11 0.2439
16 i_rx_phy_bit_cnt_2_:12 0.2588
17 g1744_u0:c 0.4474
18 i_rx_phy_bit_cnt_2_:13 0.0169
19 i_rx_phy_bit_cnt_2_:14 0.4026
20 i_rx_phy_bit_cnt_2_:15 0.4684
21 i_rx_phy_bit_cnt_2_:16 0.2490
22 g1881_u0:a 0.0579
*RES
2 TAUGATE_696:o i_rx_phy_bit_cnt_2_:1 0.3900
3 i_rx_phy_bit_cnt_2_:1 i_rx_phy_bit_cnt_2_:2 0.0557
4 i_rx_phy_bit_cnt_2_:2 i_rx_phy_bit_cnt_2_:3 0.1253
5 i_rx_phy_bit_cnt_2_:3 i_rx_phy_bit_cnt_2_:4 0.2716
6 i_rx_phy_bit_cnt_2_:4 g1824_u0:b 0.3735
7 i_rx_phy_bit_cnt_2_:1 i_rx_phy_bit_cnt_2_:5 0.2135
8 i_rx_phy_bit_cnt_2_:5 i_rx_phy_bit_cnt_2_:6 0.0419
9 i_rx_phy_bit_cnt_2_:6 i_rx_phy_bit_cnt_2_:7 0.2773
10 i_rx_phy_bit_cnt_2_:7 i_rx_phy_bit_cnt_2_:8 0.0903
11 i_rx_phy_bit_cnt_2_:8 g1881_u1:b 0.0485
12 i_rx_phy_bit_cnt_2_:8 i_rx_phy_bit_cnt_2_:9 0.4228
13 i_rx_phy_bit_cnt_2_:9 i_rx_phy_bit_cnt_2_:10 0.2443
14 i_rx_phy_bit_cnt_2_:10 g1902_u0:a 0.2458
15 i_rx_phy_bit_cnt_2_:4 i_rx_phy_bit_cnt_2_:11 0.3528
16 i_rx_phy_bit_cnt_2_:11 i_rx_phy_bit_cnt_2_:12 0.0472
17 i_rx_phy_bit_cnt_2_:12 g1744_u0:c 0.4436
18 i_rx_phy_bit_cnt_2_:5 i_rx_phy_bit_cnt_2_:13 0.0423
19 i_rx_phy_bit_cnt_2_:13 i_rx_phy_bit_cnt_2_:14 0.2861
20 i_rx_phy_bit_cnt_2_:14 i_rx_phy_bit_cnt_2_:15 0.4278
21 i_rx_phy_bit_cnt_2_:15 i_rx_phy_bit_cnt_2_:16 0.3875
22 i_rx_phy_bit_cnt_2_:16 g1881_u0:a 0.4796
*END

*D_NET TAUNET_689 1.0064
*CONN
*I g2115_u0:o O
*I TAUGATE_689:a I
*CAP
1 g2115_u0:o 0.1554
2 TAUNET_689:1 0.4380
3 TAUGATE_689:a 0.4130
*RES
2 g2115_u0:o TAUNET_689:1 0.4990
3 TAUNET_689:1 TAUGATE_689:a 0.2134
*END

*D_NET TAUNET_672 2.0765
*CONN
*I g2390_u0:o O
*I TAUGATE_672:a I
*CAP
1 g2390_u0:o 0.4947
2 TAUNET_672:1 0.2854
3 TAUNET_672:2 0.4464
4 TAUNET_672:3 0.2438
5 TAUNET_672:4 0.2969
6 TAUGATE_672:a 0.3091
*RES
2 g2390_u0:o TAUNET_672:1 0.5006
3 TAUNET_672:1 TAUNET_672:2 0.2264
4 TAUNET_672:2 TAUNET_672:3 0.3973
5 TAUNET_672:3 TAUNET_672:4 0.2044
6 TAUNET_672:4 TAUGATE_672:a 0.1531
*END

*D_NET n_701 1.2691
*CONN
*I TAUGATE_659:o O
*I g36_u0:c I
*CAP
1 TAUGATE_659:o 0.2618
2 n_701:1 0.4002
3 n_701:2 0.3652
4 n_701:3 0.1857
5 g36_u0:c 0.0562
*RES
2 TAUGATE_659:o n_701:1 0.0882
3 n_701:1 n_701:2 0.4386
4 n_701:2 n_701:3 0.2715
5 n_701:3 g36_u0:c 0.0199
*END

*D_NET TAUNET_192 0.5520
*CONN
*I g2066_u1:o O
*I TAUGATE_192:a I
*CAP
1 g2066_u1:o 0.1459
2 TAUNET_192:1 0.1026
3 TAUNET_192:2 0.1939
4 TAUGATE_192:a 0.1095
*RES
2 g2066_u1:o TAUNET_192:1 0.0212
3 TAUNET_192:1 TAUNET_192:2 0.1417
4 TAUNET_192:2 TAUGATE_192:a 0.2190
*END

*D_NET TAUNET_141 1.5644
*CONN
*I g2054_u0:o O
*I TAUGATE_141:a I
*CAP
1 g2054_u0:o 0.1138
2 TAUNET_141:1 0.3663
3 TAUNET_141:2 0.2540
4 TAUNET_141:3 0.0526
5 TAUNET_141:4 0.2388
6 TAUNET_141:5 0.1787
7 TAUGATE_141:a 0.3603
*RES
2 g2054_u0:o TAUNET_141:1 0.0603
3 TAUNET_141:1 TAUNET_141:2 0.0863
4 TAUNET_141:2 TAUNET_141:3 0.3102
5 TAUNET_141:3 TAUNET_141:4 0.1239
6 TAUNET_141:4 TAUNET_141:5 0.2473
7 TAUNET_141:5 TAUGATE_141:a 0.0055
*END

*D_NET i_tx_phy_one_cnt_2_ 3.5716
*CONN
*I TAUGATE_254:o O
*I g2087_u0:a I
*I g2272_u0:a I
*I g1884_u0:a I
*I g1884_u1:b I
*CAP
1 TAUGATE_254:o 0.2412
2 i_tx_phy_one_cnt_2_:1 0.4441
3 i_tx_phy_one_cnt_2_:2 0.4218
4 i_tx_phy_one_cnt_2_:3 0.0848
5 i_tx_phy_one_cnt_2_:4 0.0266
6 g1884_u1:b 0.0274
7 i_tx_phy_one_cnt_2_:5 0.4317
8 i_tx_phy_one_cnt_2_:6 0.1801
9 i_tx_phy_one_cnt_2_:7 0.2826
10 i_tx_phy_one_cnt_2_:8 0.3420
11 g2272_u0:a 0.0965
12 i_tx_phy_one_cnt_2_:9 0.0327
13 i_tx_phy_one_cnt_2_:10 0.0608
14 g1884_u0:a 0.3721
15 i_tx_phy_one_cnt_2_:11 0.0264
16 i_tx_phy_one_cnt_2_:12 0.2502
17 g2087_u0:a 0.2506
*RES
2 TAUGATE_254:o i_tx_phy_one_cnt_2_:1 0.4218
3 i_tx_phy_one_cnt_2_:1 i_tx_phy_one_cnt_2_:2 0.2061
4 i_tx_phy_one_cnt_2_:2 i_tx_phy_one_cnt_2_:3 0.2110
5 i_tx_phy_one_cnt_2_:3 i_tx_phy_one_cnt_2_:4 0.4583
6 i_tx_phy_one_cnt_2_:4 g1884_u1:b 0.3985
7 i_tx_phy_one_cnt_2_:3 i_tx_phy_one_cnt_2_:5 0.2555
8 i_tx_phy_one_cnt_2_:5 i_tx_phy_one_cnt_2_:6 0.1304
9 i_tx_phy_one_cnt_2_:6 i_tx_phy_one_cnt_2_:7 0.3675
10 i_tx_phy_one_cnt_2_:7 i_tx_phy_one_cnt_2_:8 0.4634
11 i_tx_phy_one_cnt_2_:8 g2272_u0:a 0.2869
12 i_tx_phy_one_cnt_2_:3 i_tx_phy_one_cnt_2_:9 0.4648
13 i_tx_phy_one_cnt_2_:9 i_tx_phy_one_cnt_2_:10 0.2376
14 i_tx_phy_one_cnt_2_:10 g1884_u0:a 0.1146
15 i_tx_phy_one_cnt_2_:7 i_tx_phy_one_cnt_2_:11 0.4486
16 i_tx_phy_one_cnt_2_:11 i_tx_phy_one_cnt_2_:12 0.0641
17 i_tx_phy_one_cnt_2_:12 g2087_u0:a 0.0138
*END

*D_NET TAUNET_427 0.7959
*CONN
*I i_rx_phy_rxdp_s0_reg_u0:o O
*I TAUGATE_427:a I
*CAP
1 i_rx_phy_rxdp_s0_reg_u0:o 0.0204
2 TAUNET_427:1 0.1001
3 TAUNET_427:2 0.2747
4 TAUNET_427:3 0.1704
5 TAUGATE_427:a 0.2303
*RES
2 i_rx_phy_rxdp_s0_reg_u0:o TAUNET_427:1 0.0121
3 TAUNET_427:1 TAUNET_427:2 0.0620
4 TAUNET_427:2 TAUNET_427:3 0.0267
5 TAUNET_427:3 TAUGATE_427:a 0.1278
*END

*D_NET n_410 1.5058
*CONN
*I TAUGATE_439:o O
*I g1764_u0:b I
*CAP
1 TAUGATE_439:o 0.3621
2 n_410:1 0.3490
3 n_410:2 0.4751
4 g1764_u0:b 0.3195
*RES
2 TAUGATE_439:o n_410:1 0.4748
3 n_410:1 n_410:2 0.2505
4 n_410:2 g1764_u0:b 0.2036
*END

*D_NET TAUNET_201 1.2849
*CONN
*I g1928_u0:o O
*I TAUGATE_201:a I
*CAP
1 g1928_u0:o 0.0185
2 TAUNET_201:1 0.2437
3 TAUNET_201:2 0.3641
4 TAUNET_201:3 0.1411
5 TAUNET_201:4 0.2452
6 TAUGATE_201:a 0.2723
*RES
2 g1928_u0:o TAUNET_201:1 0.2079
3 TAUNET_201:1 TAUNET_201:2 0.2449
4 TAUNET_201:2 TAUNET_201:3 0.0406
5 TAUNET_201:3 TAUNET_201:4 0.0917
6 TAUNET_201:4 TAUGATE_201:a 0.0078
*END

*D_NET TAUNET_398 0.3723
*CONN
*I g1844_u0:o O
*I TAUGATE_398:a I
*CAP
1 g1844_u0:o 0.0264
2 TAUNET_398:1 0.1906
3 TAUGATE_398:a 0.1553
*RES
2 g1844_u0:o TAUNET_398:1 0.0937
3 TAUNET_398:1 TAUGATE_398:a 0.2944
*END

*D_NET n_274 3.3828
*CONN
*I TAUGATE_307:o O
*I g1855_u2:b I
*I g1865_u0:a I
*I g1855_u0:a I
*CAP
1 TAUGATE_307:o 0.0209
2 n_274:1 0.1067
3 n_274:2 0.4881
4 g1855_u0:a 0.3672
5 n_274:3 0.2979
6 n_274:4 0.3428
7 n_274:5 0.2325
8 n_274:6 0.2733
9 n_274:7 0.1266
10 g1865_u0:a 0.3814
11 n_274:8 0.4527
12 n_274:9 0.1465
13 g1855_u2:b 0.1463
*RES
2 TAUGATE_307:o n_274:1 0.4629
3 n_274:1 n_274:2 0.1157
4 n_274:2 g1855_u0:a 0.1901
5 n_274:1 n_274:3 0.1363
6 n_274:3 n_274:4 0.3277
7 n_274:4 n_274:5 0.3144
8 n_274:5 n_274:6 0.4503
9 n_274:6 n_274:7 0.3676
10 n_274:7 g1865_u0:a 0.1603
11 n_274:7 n_274:8 0.4621
12 n_274:8 n_274:9 0.4065
13 n_274:9 g1855_u2:b 0.0227
*END

*D_NET g1965_p 0.7521
*CONN
*I TAUGATE_483:o O
*I g1965_u1:a I
*CAP
1 TAUGATE_483:o 0.4114
2 g1965_p:1 0.1546
3 g1965_u1:a 0.1861
*RES
2 TAUGATE_483:o g1965_p:1 0.4367
3 g1965_p:1 g1965_u1:a 0.3452
*END

*D_NET TAUNET_546 0.3052
*CONN
*I g2385_u1:o O
*I TAUGATE_546:a I
*CAP
1 g2385_u1:o 0.1217
2 TAUNET_546:1 0.1222
3 TAUGATE_546:a 0.0613
*RES
2 g2385_u1:o TAUNET_546:1 0.1692
3 TAUNET_546:1 TAUGATE_546:a 0.4407
*END

*D_NET n_977 1.3881
*CONN
*I TAUGATE_276:o O
*I g39_u0:a I
*CAP
1 TAUGATE_276:o 0.2563
2 n_977:1 0.2603
3 n_977:2 0.2874
4 n_977:3 0.3072
5 g39_u0:a 0.2768
*RES
2 TAUGATE_276:o n_977:1 0.1679
3 n_977:1 n_977:2 0.2053
4 n_977:2 n_977:3 0.2140
5 n_977:3 g39_u0:a 0.3306
*END

*D_NET TAUNET_386 2.0736
*CONN
*I g1875_u0:o O
*I TAUGATE_386:a I
*CAP
1 g1875_u0:o 0.2580
2 TAUNET_386:1 0.4796
3 TAUNET_386:2 0.3806
4 TAUNET_386:3 0.4946
5 TAUGATE_386:a 0.4608
*RES
2 g1875_u0:o TAUNET_386:1 0.4692
3 TAUNET_386:1 TAUNET_386:2 0.4766
4 TAUNET_386:2 TAUNET_386:3 0.0589
5 TAUNET_386:3 TAUGATE_386:a 0.0962
*END

*D_NET TAUNET_653 1.3235
*CONN
*I TAUGATE_54:o O
*I TAUGATE_653:a I
*CAP
1 TAUGATE_54:o 0.1750
2 TAUNET_653:1 0.0845
3 TAUNET_653:2 0.1888
4 TAUNET_653:3 0.1436
5 TAUNET_653:4 0.1762
6 TAUNET_653:5 0.4748
7 TAUGATE_653:a 0.0806
*RES
2 TAUGATE_54:o TAUNET_653:1 0.0407
3 TAUNET_653:1 TAUNET_653:2 0.2069
4 TAUNET_653:2 TAUNET_653:3 0.0491
5 TAUNET_653:3 TAUNET_653:4 0.4137
6 TAUNET_653:4 TAUNET_653:5 0.3046
7 TAUNET_653:5 TAUGATE_653:a 0.2987
*END

*D_NET n_373 1.6284
*CONN
*I TAUGATE_258:o O
*I i_rx_phy_rx_valid_reg_u0:d I
*CAP
1 TAUGATE_258:o 0.1831
2 n_373:1 0.0191
3 n_373:2 0.3538
4 n_373:3 0.4300
5 n_373:4 0.3629
6 n_373:5 0.0787
7 i_rx_phy_rx_valid_reg_u0:d 0.2007
*RES
2 TAUGATE_258:o n_373:1 0.2971
3 n_373:1 n_373:2 0.4025
4 n_373:2 n_373:3 0.5010
5 n_373:3 n_373:4 0.3538
6 n_373:4 n_373:5 0.4649
7 n_373:5 i_rx_phy_rx_valid_reg_u0:d 0.0482
*END

*D_NET n_318 9.0283
*CONN
*I TAUGATE_60:o O
*I g1961_u0:b I
*I g2465_u0:a I
*I g1962_u0:b I
*I g2501_u0:a I
*I g1963_u0:b I
*I g2657_u0:a I
*I g1758_u0:a I
*I g2128_u0:b I
*I g1966_u0:b I
*CAP
1 TAUGATE_60:o 0.2963
2 n_318:1 0.2002
3 n_318:2 0.2573
4 n_318:3 0.3761
5 n_318:4 0.0616
6 n_318:5 0.4298
7 g2465_u0:a 0.2857
8 n_318:6 0.1731
9 g1961_u0:b 0.2737
10 n_318:7 0.3461
11 n_318:8 0.3729
12 n_318:9 0.0418
13 g1962_u0:b 0.3671
14 n_318:10 0.1379
15 n_318:11 0.1139
16 n_318:12 0.0489
17 n_318:13 0.0861
18 n_318:14 0.1477
19 g2501_u0:a 0.4806
20 n_318:15 0.1906
21 n_318:16 0.5003
22 n_318:17 0.4347
23 n_318:18 0.3044
24 g1963_u0:b 0.1394
25 n_318:19 0.3112
26 n_318:20 0.1345
27 n_318:21 0.4134
28 g2657_u0:a 0.0741
29 n_318:22 0.2112
30 n_318:23 0.2343
31 g1758_u0:a 0.1106
32 n_318:24 0.1702
33 n_318:25 0.0535
34 g2128_u0:b 0.0383
35 n_318:26 0.1825
36 n_318:27 0.4154
37 n_318:28 0.4205
38 g1966_u0:b 0.1921
*RES
2 TAUGATE_60:o n_318:1 0.2634
3 n_318:1 n_318:2 0.0470
4 n_318:2 n_318:3 0.0745
5 n_318:3 n_318:4 0.1738
6 n_318:4 n_318:5 0.4336
7 n_318:5 g2465_u0:a 0.4556
8 n_318:1 n_318:6 0.3095
9 n_318:6 g1961_u0:b 0.4895
10 n_318:6 n_318:7 0.3815
11 n_318:7 n_318:8 0.1458
12 n_318:8 n_318:9 0.4915
13 n_318:9 g1962_u0:b 0.0683
14 n_318:5 n_318:10 0.3473
15 n_318:10 n_318:11 0.1114
16 n_318:11 n_318:12 0.0198
17 n_318:12 n_318:13 0.2366
18 n_318:13 n_318:14 0.1100
19 n_318:14 g2501_u0:a 0.2818
20 n_318:13 n_318:15 0.0096
21 n_318:15 n_318:16 0.4963
22 n_318:16 n_318:17 0.2377
23 n_318:17 n_318:18 0.2571
24 n_318:18 g1963_u0:b 0.3610
25 n_318:13 n_318:19 0.4290
26 n_318:19 n_318:20 0.4891
27 n_318:20 n_318:21 0.0621
28 n_318:21 g2657_u0:a 0.2122
29 n_318:9 n_318:22 0.0283
30 n_318:22 n_318:23 0.2644
31 n_318:23 g1758_u0:a 0.3395
32 n_318:20 n_318:24 0.2939
33 n_318:24 n_318:25 0.2177
34 n_318:25 g2128_u0:b 0.0520
35 n_318:18 n_318:26 0.3303
36 n_318:26 n_318:27 0.0500
37 n_318:27 n_318:28 0.3450
38 n_318:28 g1966_u0:b 0.2552
*END

*D_NET TAUNET_362 0.9333
*CONN
*I g1810_u0:o O
*I TAUGATE_362:a I
*CAP
1 g1810_u0:o 0.3943
2 TAUNET_362:1 0.3586
3 TAUGATE_362:a 0.1804
*RES
2 g1810_u0:o TAUNET_362:1 0.2132
3 TAUNET_362:1 TAUGATE_362:a 0.3448
*END

*D_NET TAUNET_44 0.6797
*CONN
*I TAUGATE_690:o O
*I TAUGATE_44:a I
*CAP
1 TAUGATE_690:o 0.0169
2 TAUNET_44:1 0.3418
3 TAUNET_44:2 0.0277
4 TAUNET_44:3 0.2232
5 TAUGATE_44:a 0.0700
*RES
2 TAUGATE_690:o TAUNET_44:1 0.3825
3 TAUNET_44:1 TAUNET_44:2 0.4916
4 TAUNET_44:2 TAUNET_44:3 0.0258
5 TAUNET_44:3 TAUGATE_44:a 0.0722
*END

*D_NET TAUNET_373 0.1761
*CONN
*I g24_u0:o O
*I TAUGATE_373:a I
*CAP
1 g24_u0:o 0.0274
2 TAUNET_373:1 0.0758
3 TAUGATE_373:a 0.0730
*RES
2 g24_u0:o TAUNET_373:1 0.2996
3 TAUNET_373:1 TAUGATE_373:a 0.1500
*END

*D_NET i_rx_phy_bit_stuff_err_reg_Q 1.1459
*CONN
*I TAUGATE_443:o O
*I i_rx_phy_bit_stuff_err_reg_u1:a I
*CAP
1 TAUGATE_443:o 0.0605
2 i_rx_phy_bit_stuff_err_reg_Q:1 0.4347
3 i_rx_phy_bit_stuff_err_reg_Q:2 0.2976
4 i_rx_phy_bit_stuff_err_reg_u1:a 0.3531
*RES
2 TAUGATE_443:o i_rx_phy_bit_stuff_err_reg_Q:1 0.0316
3 i_rx_phy_bit_stuff_err_reg_Q:1 i_rx_phy_bit_stuff_err_reg_Q:2 0.1823
4 i_rx_phy_bit_stuff_err_reg_Q:2 i_rx_phy_bit_stuff_err_reg_u1:a 0.0755
*END

*D_NET TAUNET_56 1.1637
*CONN
*I TAUGATE_726:o O
*I TAUGATE_56:a I
*CAP
1 TAUGATE_726:o 0.3515
2 TAUNET_56:1 0.4269
3 TAUNET_56:2 0.0493
4 TAUNET_56:3 0.0341
5 TAUGATE_56:a 0.3020
*RES
2 TAUGATE_726:o TAUNET_56:1 0.3389
3 TAUNET_56:1 TAUNET_56:2 0.4000
4 TAUNET_56:2 TAUNET_56:3 0.0188
5 TAUNET_56:3 TAUGATE_56:a 0.4709
*END

*D_NET FE_RN_0_0 0.8262
*CONN
*I TAUGATE_542:o O
*I FE_RC_0_0:a I
*CAP
1 TAUGATE_542:o 0.0122
2 FE_RN_0_0:1 0.0936
3 FE_RN_0_0:2 0.3051
4 FE_RN_0_0:3 0.1197
5 FE_RC_0_0:a 0.2956
*RES
2 TAUGATE_542:o FE_RN_0_0:1 0.2210
3 FE_RN_0_0:1 FE_RN_0_0:2 0.0970
4 FE_RN_0_0:2 FE_RN_0_0:3 0.2798
5 FE_RN_0_0:3 FE_RC_0_0:a 0.3150
*END

*D_NET TAUNET_526 1.2664
*CONN
*I g1897_u0:o O
*I TAUGATE_526:a I
*CAP
1 g1897_u0:o 0.2108
2 TAUNET_526:1 0.0161
3 TAUNET_526:2 0.2047
4 TAUNET_526:3 0.3729
5 TAUNET_526:4 0.0610
6 TAUGATE_526:a 0.4010
*RES
2 g1897_u0:o TAUNET_526:1 0.2910
3 TAUNET_526:1 TAUNET_526:2 0.3768
4 TAUNET_526:2 TAUNET_526:3 0.3083
5 TAUNET_526:3 TAUNET_526:4 0.1250
6 TAUNET_526:4 TAUGATE_526:a 0.3526
*END

*D_NET n_426 2.3881
*CONN
*I TAUGATE_108:o O
*I g1819_u0:a I
*I g2505_u0:b I
*I g1747_u0:c I
*CAP
1 TAUGATE_108:o 0.3144
2 n_426:1 0.0820
3 n_426:2 0.2174
4 n_426:3 0.3638
5 n_426:4 0.4097
6 g1747_u0:c 0.2418
7 n_426:5 0.1278
8 g2505_u0:b 0.3093
9 n_426:6 0.0712
10 n_426:7 0.0044
11 n_426:8 0.1986
12 g1819_u0:a 0.0476
*RES
2 TAUGATE_108:o n_426:1 0.4080
3 n_426:1 n_426:2 0.3118
4 n_426:2 n_426:3 0.4981
5 n_426:3 n_426:4 0.3134
6 n_426:4 g1747_u0:c 0.4059
7 n_426:1 n_426:5 0.3342
8 n_426:5 g2505_u0:b 0.2150
9 n_426:2 n_426:6 0.0521
10 n_426:6 n_426:7 0.0546
11 n_426:7 n_426:8 0.0043
12 n_426:8 g1819_u0:a 0.2737
*END

*D_NET n_404 1.2711
*CONN
*I TAUGATE_99:o O
*I g1702_u0:a I
*CAP
1 TAUGATE_99:o 0.2677
2 n_404:1 0.1466
3 n_404:2 0.2784
4 n_404:3 0.2008
5 g1702_u0:a 0.3776
*RES
2 TAUGATE_99:o n_404:1 0.2937
3 n_404:1 n_404:2 0.0093
4 n_404:2 n_404:3 0.2822
5 n_404:3 g1702_u0:a 0.4311
*END

*D_NET n_629 1.6512
*CONN
*I TAUGATE_266:o O
*I FE_RC_0_0:b I
*CAP
1 TAUGATE_266:o 0.1138
2 n_629:1 0.3567
3 n_629:2 0.3242
4 n_629:3 0.2336
5 n_629:4 0.3863
6 FE_RC_0_0:b 0.2365
*RES
2 TAUGATE_266:o n_629:1 0.1037
3 n_629:1 n_629:2 0.3572
4 n_629:2 n_629:3 0.2211
5 n_629:3 n_629:4 0.2185
6 n_629:4 FE_RC_0_0:b 0.2266
*END

*D_NET TAUNET_211 1.9002
*CONN
*I g1781_u3:o O
*I TAUGATE_211:a I
*CAP
1 g1781_u3:o 0.1297
2 TAUNET_211:1 0.2417
3 TAUNET_211:2 0.2444
4 TAUNET_211:3 0.4262
5 TAUNET_211:4 0.3737
6 TAUNET_211:5 0.3015
7 TAUGATE_211:a 0.1830
*RES
2 g1781_u3:o TAUNET_211:1 0.3035
3 TAUNET_211:1 TAUNET_211:2 0.4053
4 TAUNET_211:2 TAUNET_211:3 0.0863
5 TAUNET_211:3 TAUNET_211:4 0.2362
6 TAUNET_211:4 TAUNET_211:5 0.1365
7 TAUNET_211:5 TAUGATE_211:a 0.0277
*END

*D_NET TAUNET_221 0.8486
*CONN
*I g2672_u0:o O
*I TAUGATE_221:a I
*CAP
1 g2672_u0:o 0.2912
2 TAUNET_221:1 0.3711
3 TAUNET_221:2 0.0512
4 TAUGATE_221:a 0.1351
*RES
2 g2672_u0:o TAUNET_221:1 0.0984
3 TAUNET_221:1 TAUNET_221:2 0.0368
4 TAUNET_221:2 TAUGATE_221:a 0.4376
*END

*D_NET TAUNET_81 1.3959
*CONN
*I g1931_u0:o O
*I TAUGATE_81:a I
*CAP
1 g1931_u0:o 0.1283
2 TAUNET_81:1 0.3234
3 TAUNET_81:2 0.4610
4 TAUGATE_81:a 0.4832
*RES
2 g1931_u0:o TAUNET_81:1 0.2776
3 TAUNET_81:1 TAUNET_81:2 0.3781
4 TAUNET_81:2 TAUGATE_81:a 0.3766
*END

*D_NET TAUNET_357 1.4006
*CONN
*I g2258_u0:o O
*I TAUGATE_357:a I
*CAP
1 g2258_u0:o 0.3877
2 TAUNET_357:1 0.3738
3 TAUNET_357:2 0.4556
4 TAUGATE_357:a 0.1835
*RES
2 g2258_u0:o TAUNET_357:1 0.0020
3 TAUNET_357:1 TAUNET_357:2 0.2614
4 TAUNET_357:2 TAUGATE_357:a 0.3010
*END

*D_NET TAUNET_511 1.0435
*CONN
*I i_rx_phy_fs_ce_reg_u0:o O
*I TAUGATE_511:a I
*CAP
1 i_rx_phy_fs_ce_reg_u0:o 0.4372
2 TAUNET_511:1 0.1153
3 TAUNET_511:2 0.3810
4 TAUGATE_511:a 0.1100
*RES
2 i_rx_phy_fs_ce_reg_u0:o TAUNET_511:1 0.1662
3 TAUNET_511:1 TAUNET_511:2 0.3178
4 TAUNET_511:2 TAUGATE_511:a 0.2541
*END

*D_NET TAUNET_611 1.5558
*CONN
*I g1981_u0:o O
*I TAUGATE_611:a I
*CAP
1 g1981_u0:o 0.4625
2 TAUNET_611:1 0.0981
3 TAUNET_611:2 0.3461
4 TAUNET_611:3 0.2382
5 TAUGATE_611:a 0.4109
*RES
2 g1981_u0:o TAUNET_611:1 0.0945
3 TAUNET_611:1 TAUNET_611:2 0.2326
4 TAUNET_611:2 TAUNET_611:3 0.0121
5 TAUNET_611:3 TAUGATE_611:a 0.2674
*END

*D_NET TAUNET_698 1.0180
*CONN
*I i_tx_phy_txoe_reg_u0:o O
*I TAUGATE_698:a I
*CAP
1 i_tx_phy_txoe_reg_u0:o 0.0414
2 TAUNET_698:1 0.1970
3 TAUNET_698:2 0.0138
4 TAUNET_698:3 0.4527
5 TAUGATE_698:a 0.3131
*RES
2 i_tx_phy_txoe_reg_u0:o TAUNET_698:1 0.4392
3 TAUNET_698:1 TAUNET_698:2 0.4048
4 TAUNET_698:2 TAUNET_698:3 0.0368
5 TAUNET_698:3 TAUGATE_698:a 0.3283
*END

*D_NET n_332 1.5830
*CONN
*I TAUGATE_461:o O
*I g1843_u0:b I
*CAP
1 TAUGATE_461:o 0.4199
2 n_332:1 0.3306
3 n_332:2 0.3042
4 n_332:3 0.1317
5 n_332:4 0.1481
6 g1843_u0:b 0.2485
*RES
2 TAUGATE_461:o n_332:1 0.2201
3 n_332:1 n_332:2 0.2966
4 n_332:2 n_332:3 0.3013
5 n_332:3 n_332:4 0.0758
6 n_332:4 g1843_u0:b 0.0262
*END

*D_NET n_391 0.4260
*CONN
*I TAUGATE_702:o O
*I g1859_u0:a I
*CAP
1 TAUGATE_702:o 0.0656
2 n_391:1 0.0047
3 n_391:2 0.1418
4 g1859_u0:a 0.2138
*RES
2 TAUGATE_702:o n_391:1 0.3805
3 n_391:1 n_391:2 0.2523
4 n_391:2 g1859_u0:a 0.0497
*END

*D_NET TAUNET_733 1.3598
*CONN
*I g1709_u0:o O
*I TAUGATE_733:a I
*CAP
1 g1709_u0:o 0.3913
2 TAUNET_733:1 0.3201
3 TAUNET_733:2 0.0320
4 TAUNET_733:3 0.2786
5 TAUGATE_733:a 0.3378
*RES
2 g1709_u0:o TAUNET_733:1 0.4364
3 TAUNET_733:1 TAUNET_733:2 0.2454
4 TAUNET_733:2 TAUNET_733:3 0.4527
5 TAUNET_733:3 TAUGATE_733:a 0.2663
*END

*D_NET n_165 1.5865
*CONN
*I TAUGATE_229:o O
*I g1903_u0:b I
*CAP
1 TAUGATE_229:o 0.1740
2 n_165:1 0.3351
3 n_165:2 0.4105
4 n_165:3 0.3004
5 g1903_u0:b 0.3665
*RES
2 TAUGATE_229:o n_165:1 0.1341
3 n_165:1 n_165:2 0.0859
4 n_165:2 n_165:3 0.1706
5 n_165:3 g1903_u0:b 0.3812
*END

*D_NET n_947 2.1926
*CONN
*I TAUGATE_75:o O
*I g2640_u0:b I
*I g11_u0:b I
*CAP
1 TAUGATE_75:o 0.1227
2 n_947:1 0.0059
3 g2640_u0:b 0.3552
4 n_947:2 0.3594
5 n_947:3 0.4902
6 n_947:4 0.4716
7 n_947:5 0.2112
8 g11_u0:b 0.1762
*RES
2 TAUGATE_75:o n_947:1 0.3839
3 n_947:1 g2640_u0:b 0.1840
4 n_947:1 n_947:2 0.1166
5 n_947:2 n_947:3 0.1660
6 n_947:3 n_947:4 0.2177
7 n_947:4 n_947:5 0.2908
8 n_947:5 g11_u0:b 0.3318
*END

*D_NET n_435 2.9824
*CONN
*I TAUGATE_386:o O
*I g1821_u0:b I
*I g1816_u0:b I
*CAP
1 TAUGATE_386:o 0.4080
2 n_435:1 0.1932
3 n_435:2 0.0675
4 n_435:3 0.0053
5 n_435:4 0.1459
6 n_435:5 0.0437
7 g1816_u0:b 0.4598
8 n_435:6 0.4518
9 n_435:7 0.0570
10 n_435:8 0.4909
11 n_435:9 0.0572
12 n_435:10 0.5008
13 g1821_u0:b 0.1013
*RES
2 TAUGATE_386:o n_435:1 0.3838
3 n_435:1 n_435:2 0.2033
4 n_435:2 n_435:3 0.3263
5 n_435:3 n_435:4 0.4574
6 n_435:4 n_435:5 0.4683
7 n_435:5 g1816_u0:b 0.1543
8 n_435:2 n_435:6 0.2457
9 n_435:6 n_435:7 0.4210
10 n_435:7 n_435:8 0.2594
11 n_435:8 n_435:9 0.3565
12 n_435:9 n_435:10 0.4074
13 n_435:10 g1821_u0:b 0.4309
*END

*D_NET TAUNET_303 1.6029
*CONN
*I g1926_u0:o O
*I TAUGATE_303:a I
*CAP
1 g1926_u0:o 0.2931
2 TAUNET_303:1 0.2246
3 TAUNET_303:2 0.3320
4 TAUNET_303:3 0.3870
5 TAUGATE_303:a 0.3663
*RES
2 g1926_u0:o TAUNET_303:1 0.1512
3 TAUNET_303:1 TAUNET_303:2 0.1368
4 TAUNET_303:2 TAUNET_303:3 0.4493
5 TAUNET_303:3 TAUGATE_303:a 0.4663
*END

*D_NET TAUNET_631 1.5003
*CONN
*I g2224_u0:o O
*I TAUGATE_631:a I
*CAP
1 g2224_u0:o 0.1873
2 TAUNET_631:1 0.3589
3 TAUNET_631:2 0.4697
4 TAUGATE_631:a 0.4844
*RES
2 g2224_u0:o TAUNET_631:1 0.0401
3 TAUNET_631:1 TAUNET_631:2 0.2861
4 TAUNET_631:2 TAUGATE_631:a 0.1883
*END

*D_NET TAUNET_577 1.2973
*CONN
*I i_rx_phy_fs_state_reg_0__u0:o O
*I TAUGATE_577:a I
*CAP
1 i_rx_phy_fs_state_reg_0__u0:o 0.0604
2 TAUNET_577:1 0.2921
3 TAUNET_577:2 0.4162
4 TAUNET_577:3 0.1285
5 TAUNET_577:4 0.0491
6 TAUGATE_577:a 0.3511
*RES
2 i_rx_phy_fs_state_reg_0__u0:o TAUNET_577:1 0.2111
3 TAUNET_577:1 TAUNET_577:2 0.3010
4 TAUNET_577:2 TAUNET_577:3 0.1515
5 TAUNET_577:3 TAUNET_577:4 0.0492
6 TAUNET_577:4 TAUGATE_577:a 0.2707
*END

*D_NET TAUNET_439 0.7974
*CONN
*I g1824_u0:o O
*I TAUGATE_439:a I
*CAP
1 g1824_u0:o 0.2365
2 TAUNET_439:1 0.2080
3 TAUGATE_439:a 0.3529
*RES
2 g1824_u0:o TAUNET_439:1 0.4886
3 TAUNET_439:1 TAUGATE_439:a 0.3648
*END

*D_NET n_937 4.3032
*CONN
*I TAUGATE_374:o O
*I g2655_u0:c I
*I g1942_u0:b I
*I g1965_u0:b I
*CAP
1 TAUGATE_374:o 0.3187
2 n_937:1 0.0224
3 n_937:2 0.4026
4 n_937:3 0.2784
5 n_937:4 0.1803
6 n_937:5 0.0882
7 g1965_u0:b 0.2924
8 n_937:6 0.3922
9 n_937:7 0.3950
10 g1942_u0:b 0.2666
11 n_937:8 0.4169
12 n_937:9 0.3167
13 n_937:10 0.3376
14 n_937:11 0.1073
15 n_937:12 0.3579
16 g2655_u0:c 0.1300
*RES
2 TAUGATE_374:o n_937:1 0.4780
3 n_937:1 n_937:2 0.3510
4 n_937:2 n_937:3 0.1182
5 n_937:3 n_937:4 0.2614
6 n_937:4 n_937:5 0.1530
7 n_937:5 g1965_u0:b 0.2582
8 n_937:1 n_937:6 0.4255
9 n_937:6 n_937:7 0.4671
10 n_937:7 g1942_u0:b 0.2972
11 n_937:6 n_937:8 0.3795
12 n_937:8 n_937:9 0.2362
13 n_937:9 n_937:10 0.1908
14 n_937:10 n_937:11 0.1996
15 n_937:11 n_937:12 0.3123
16 n_937:12 g2655_u0:c 0.1251
*END

*D_NET TAUNET_718 0.7367
*CONN
*I g1879_u0:o O
*I TAUGATE_718:a I
*CAP
1 g1879_u0:o 0.3126
2 TAUNET_718:1 0.0541
3 TAUGATE_718:a 0.3700
*RES
2 g1879_u0:o TAUNET_718:1 0.3260
3 TAUNET_718:1 TAUGATE_718:a 0.3466
*END

*D_NET TAUNET_53 0.9920
*CONN
*I TAUGATE_187:o O
*I TAUGATE_53:a I
*CAP
1 TAUGATE_187:o 0.4038
2 TAUNET_53:1 0.0063
3 TAUNET_53:2 0.4904
4 TAUGATE_53:a 0.0915
*RES
2 TAUGATE_187:o TAUNET_53:1 0.4619
3 TAUNET_53:1 TAUNET_53:2 0.1065
4 TAUNET_53:2 TAUGATE_53:a 0.1990
*END

*D_NET TAUNET_2 0.5577
*CONN
*I TAUGATE_314:o O
*I TAUGATE_2:a I
*CAP
1 TAUGATE_314:o 0.0690
2 TAUNET_2:1 0.2934
3 TAUNET_2:2 0.0661
4 TAUNET_2:3 0.0281
5 TAUGATE_2:a 0.1011
*RES
2 TAUGATE_314:o TAUNET_2:1 0.2539
3 TAUNET_2:1 TAUNET_2:2 0.0765
4 TAUNET_2:2 TAUNET_2:3 0.1980
5 TAUNET_2:3 TAUGATE_2:a 0.3226
*END

*D_NET n_974 13.5923
*CONN
*I TAUGATE_278:o O
*I g1739_u0:b I
*I g1741_u0:b I
*I g1742_u0:b I
*I g2657_u0:c I
*I g2664_u0:a I
*I g1743_u0:b I
*I g1728_u0:a I
*I g1737_u0:b I
*I g1740_u0:b I
*I g1738_u0:b I
*CAP
1 TAUGATE_278:o 0.2766
2 n_974:1 0.4267
3 n_974:2 0.4596
4 n_974:3 0.3295
5 n_974:4 0.4724
6 n_974:5 0.4631
7 g1742_u0:b 0.0407
8 n_974:6 0.0346
9 n_974:7 0.4333
10 n_974:8 0.0645
11 g1741_u0:b 0.3416
12 n_974:9 0.2746
13 n_974:10 0.4228
14 g1739_u0:b 0.1417
15 n_974:11 0.4926
16 n_974:12 0.0580
17 n_974:13 0.3810
18 n_974:14 0.2195
19 n_974:15 0.2042
20 g2657_u0:c 0.2030
21 n_974:16 0.0857
22 n_974:17 0.2654
23 n_974:18 0.2245
24 n_974:19 0.4797
25 n_974:20 0.0551
26 g2664_u0:a 0.1877
27 n_974:21 0.2766
28 n_974:22 0.3086
29 n_974:23 0.2353
30 g1743_u0:b 0.4838
31 n_974:24 0.3681
32 n_974:25 0.4419
33 n_974:26 0.1561
34 n_974:27 0.1347
35 n_974:28 0.0224
36 g1728_u0:a 0.3933
37 n_974:29 0.2242
38 g1737_u0:b 0.4834
39 n_974:30 0.4721
40 n_974:31 0.1185
41 n_974:32 0.4585
42 g1740_u0:b 0.3703
43 n_974:33 0.1640
44 n_974:34 0.1778
45 n_974:35 0.3155
46 n_974:36 0.4909
47 n_974:37 0.2285
48 g1738_u0:b 0.2293
*RES
2 TAUGATE_278:o n_974:1 0.4130
3 n_974:1 n_974:2 0.3462
4 n_974:2 n_974:3 0.0714
5 n_974:3 n_974:4 0.2110
6 n_974:4 n_974:5 0.2588
7 n_974:5 g1742_u0:b 0.0339
8 n_974:3 n_974:6 0.4099
9 n_974:6 n_974:7 0.1540
10 n_974:7 n_974:8 0.0325
11 n_974:8 g1741_u0:b 0.0924
12 n_974:4 n_974:9 0.3754
13 n_974:9 n_974:10 0.2016
14 n_974:10 g1739_u0:b 0.0068
15 n_974:5 n_974:11 0.2656
16 n_974:11 n_974:12 0.4413
17 n_974:12 n_974:13 0.1336
18 n_974:13 n_974:14 0.4042
19 n_974:14 n_974:15 0.0451
20 n_974:15 g2657_u0:c 0.2391
21 n_974:1 n_974:16 0.0973
22 n_974:16 n_974:17 0.4235
23 n_974:17 n_974:18 0.1903
24 n_974:18 n_974:19 0.2143
25 n_974:19 n_974:20 0.0701
26 n_974:20 g2664_u0:a 0.2421
27 n_974:20 n_974:21 0.0722
28 n_974:21 n_974:22 0.3539
29 n_974:22 n_974:23 0.3446
30 n_974:23 g1743_u0:b 0.0192
31 n_974:6 n_974:24 0.2244
32 n_974:24 n_974:25 0.4154
33 n_974:25 n_974:26 0.1374
34 n_974:26 n_974:27 0.1713
35 n_974:27 n_974:28 0.2153
36 n_974:28 g1728_u0:a 0.3119
37 n_974:1 n_974:29 0.4589
38 n_974:29 g1737_u0:b 0.0098