*SPEF "IEEE 1481-1998"
*DESIGN "changes"
*DATE "Tue Dec 02 20:48:54 2014"
*VENDOR "TAU 2015 Contest"
*PROGRAM "Benchmark Parasitic Generator"
*VERSION "0.0"
*DESIGN_FLOW "NETLIST_TYPE_VERILOG"
*DIVIDER /
*DELIMITER :
*BUS_DELIMITER [ ]
*T_UNIT 1 PS
*C_UNIT 1 FF
*R_UNIT 1 KOHM
*L_UNIT 1 UH

*D_NET n_707 1.7439
*CONN
*I g2464_u0:o O
*I g2463_u0:a I
*CAP
1 g2464_u0:o 0.2611
2 n_707:1 0.4098
3 n_707:2 0.5009
4 n_707:3 0.2843
5 g2463_u0:a 0.2878
*RES
2 g2464_u0:o n_707:1 0.1659
3 n_707:1 n_707:2 0.2742
4 n_707:2 n_707:3 0.3494
5 n_707:3 g2463_u0:a 0.1485
*END

*D_NET n_340 1.6938
*CONN
*I g1899_u0:o O
*I g1868_u0:b I
*I g1849_u0:b I
*CAP
1 g1899_u0:o 0.2110
2 n_340:1 0.3070
3 n_340:2 0.3583
4 n_340:3 0.1395
5 n_340:4 0.0646
6 n_340:5 0.0794
7 g1849_u0:b 0.2161
8 n_340:6 0.2440
9 n_340:7 0.0332
10 g1868_u0:b 0.0406
*RES
2 g1899_u0:o n_340:1 0.1614
3 n_340:1 n_340:2 0.3312
4 n_340:2 n_340:3 0.3755
5 n_340:3 n_340:4 0.4644
6 n_340:4 n_340:5 0.4559
7 n_340:5 g1849_u0:b 0.4050
8 n_340:2 n_340:6 0.2732
9 n_340:6 n_340:7 0.0073
10 n_340:7 g1868_u0:b 0.1308
*END

*D_NET n_482 1.8161
*CONN
*I TAUGATE_683:o O
*I i_tx_phy_hold_reg_reg_6__u0:d I
*CAP
1 TAUGATE_683:o 0.2909
2 n_482:1 0.0740
3 n_482:2 0.4871
4 n_482:3 0.4951
5 n_482:4 0.4125
6 i_tx_phy_hold_reg_reg_6__u0:d 0.0565
*RES
2 TAUGATE_683:o n_482:1 0.1285
3 n_482:1 n_482:2 0.0292
4 n_482:2 n_482:3 0.2926
5 n_482:3 n_482:4 0.4507
6 n_482:4 i_tx_phy_hold_reg_reg_6__u0:d 0.3356
*END

*D_NET TAUNET_522 1.9602
*CONN
*I g1897_u0:o O
*I TAUGATE_522:a I
*CAP
1 g1897_u0:o 0.3845
2 TAUNET_522:1 0.3056
3 TAUNET_522:2 0.3464
4 TAUNET_522:3 0.0305
5 TAUNET_522:4 0.2383
6 TAUNET_522:5 0.4020
7 TAUGATE_522:a 0.2529
*RES
2 g1897_u0:o TAUNET_522:1 0.2665
3 TAUNET_522:1 TAUNET_522:2 0.4354
4 TAUNET_522:2 TAUNET_522:3 0.1977
5 TAUNET_522:3 TAUNET_522:4 0.0788
6 TAUNET_522:4 TAUNET_522:5 0.3276
7 TAUNET_522:5 TAUGATE_522:a 0.3833
*END

*D_NET n_990 0.8670
*CONN
*I g2672_u0:o O
*I g2671_u0:a I
*CAP
1 g2672_u0:o 0.0716
2 n_990:1 0.1922
3 n_990:2 0.2805
4 n_990:3 0.1322
5 g2671_u0:a 0.1905
*RES
2 g2672_u0:o n_990:1 0.4017
3 n_990:1 n_990:2 0.4680
4 n_990:2 n_990:3 0.2976
5 n_990:3 g2671_u0:a 0.2331
*END

*D_NET n_960 1.3358
*CONN
*I g34_u0:o O
*I g2650_u0:c I
*CAP
1 g34_u0:o 0.3943
2 n_960:1 0.1955
3 n_960:2 0.1868
4 n_960:3 0.4889
5 g2650_u0:c 0.0703
*RES
2 g34_u0:o n_960:1 0.3298
3 n_960:1 n_960:2 0.4131
4 n_960:2 n_960:3 0.3310
5 n_960:3 g2650_u0:c 0.2621
*END

*D_NET n_959 0.9833
*CONN
*I g31_u0:o O
*I g2650_u0:b I
*CAP
1 g31_u0:o 0.1808
2 n_959:1 0.3990
3 g2650_u0:b 0.4035
*RES
2 g31_u0:o n_959:1 0.0219
3 n_959:1 g2650_u0:b 0.0830
*END

*D_NET TAUNET_515 3.2416
*CONN
*I g1953_u0:o O
*I TAUGATE_515:a I
*I g2652_u0:b I
*CAP
1 g1953_u0:o 0.1250
2 TAUNET_515:1 0.4976
3 TAUNET_515:2 0.3591
4 TAUNET_515:3 0.2780
5 TAUNET_515:4 0.2022
6 g2652_u0:b 0.1593
7 TAUNET_515:5 0.0632
8 TAUNET_515:6 0.2503
9 TAUNET_515:7 0.4700
10 TAUNET_515:8 0.3789
11 TAUNET_515:9 0.3545
12 TAUGATE_515:a 0.1033
*RES
2 g1953_u0:o TAUNET_515:1 0.4382
3 TAUNET_515:1 TAUNET_515:2 0.3498
4 TAUNET_515:2 TAUNET_515:3 0.4055
5 TAUNET_515:3 TAUNET_515:4 0.4519
6 TAUNET_515:4 g2652_u0:b 0.4658
7 TAUNET_515:4 TAUNET_515:5 0.4316
8 TAUNET_515:5 TAUNET_515:6 0.1782
9 TAUNET_515:6 TAUNET_515:7 0.4734
10 TAUNET_515:7 TAUNET_515:8 0.0376
11 TAUNET_515:8 TAUNET_515:9 0.0972
12 TAUNET_515:9 TAUGATE_515:a 0.3594
*END

*D_NET n_415 1.4515
*CONN
*I g1811_u0:o O
*I i_tx_phy_bit_cnt_reg_2__u0:d I
*CAP
1 g1811_u0:o 0.3248
2 n_415:1 0.1267
3 n_415:2 0.3840
4 n_415:3 0.2434
5 i_tx_phy_bit_cnt_reg_2__u0:d 0.3726
*RES
2 g1811_u0:o n_415:1 0.2980
3 n_415:1 n_415:2 0.2454
4 n_415:2 n_415:3 0.4670
5 n_415:3 i_tx_phy_bit_cnt_reg_2__u0:d 0.1921
*END

*D_NET DataIn_o_7_ 1.8148
*CONN
*I i_rx_phy_hold_reg_reg_7__u0:o O
*P DataIn_o_7_ O
*I i_rx_phy_hold_reg_reg_6__u0:d I
*CAP
1 i_rx_phy_hold_reg_reg_7__u0:o 0.4443
2 DataIn_o_7_:1 0.3022
3 DataIn_o_7_:2 0.1405
4 DataIn_o_7_ 0.0668
5 DataIn_o_7_:3 0.0282
6 DataIn_o_7_:4 0.3089
7 DataIn_o_7_:5 0.0253
8 DataIn_o_7_:6 0.3105
9 i_rx_phy_hold_reg_reg_6__u0:d 0.1881
*RES
2 i_rx_phy_hold_reg_reg_7__u0:o DataIn_o_7_:1 0.3699
3 DataIn_o_7_:1 DataIn_o_7_:2 0.4131
4 DataIn_o_7_:2 DataIn_o_7_ 0.4004
5 DataIn_o_7_:1 DataIn_o_7_:3 0.2034
6 DataIn_o_7_:3 DataIn_o_7_:4 0.1592
7 DataIn_o_7_:4 DataIn_o_7_:5 0.3147
8 DataIn_o_7_:5 DataIn_o_7_:6 0.2761
9 DataIn_o_7_:6 i_rx_phy_hold_reg_reg_6__u0:d 0.3643
*END

*D_NET n_259 1.2795
*CONN
*I g1954_u0:o O
*I g1926_u0:a I
*CAP
1 g1954_u0:o 0.0666
2 n_259:1 0.3580
3 n_259:2 0.3774
4 n_259:3 0.2731
5 n_259:4 0.1525
6 g1926_u0:a 0.0518
*RES
2 g1954_u0:o n_259:1 0.2548
3 n_259:1 n_259:2 0.2154
4 n_259:2 n_259:3 0.4921
5 n_259:3 n_259:4 0.1648
6 n_259:4 g1926_u0:a 0.1855
*END

*D_NET TAUNET_366 1.0916
*CONN
*I TAUGATE_53:o O
*I TAUGATE_366:a I
*CAP
1 TAUGATE_53:o 0.3530
2 TAUNET_366:1 0.2239
3 TAUNET_366:2 0.0917
4 TAUGATE_366:a 0.4230
*RES
2 TAUGATE_53:o TAUNET_366:1 0.1494
3 TAUNET_366:1 TAUNET_366:2 0.3290
4 TAUNET_366:2 TAUGATE_366:a 0.1620
*END

*D_NET TAUNET_356 1.1549
*CONN
*I TAUGATE_314:o O
*I TAUGATE_356:a I
*CAP
1 TAUGATE_314:o 0.2883
2 TAUNET_356:1 0.4381
3 TAUNET_356:2 0.3484
4 TAUGATE_356:a 0.0801
*RES
2 TAUGATE_314:o TAUNET_356:1 0.1392
3 TAUNET_356:1 TAUNET_356:2 0.1891
4 TAUNET_356:2 TAUGATE_356:a 0.0464
*END

*D_NET n_184 1.0649
*CONN
*I g2012_u0:o O
*I g1934_u0:a I
*CAP
1 g2012_u0:o 0.0279
2 n_184:1 0.0649
3 n_184:2 0.0510
4 n_184:3 0.1600
5 n_184:4 0.1748
6 n_184:5 0.4787
7 g1934_u0:a 0.1076
*RES
2 g2012_u0:o n_184:1 0.4606
3 n_184:1 n_184:2 0.3388
4 n_184:2 n_184:3 0.4657
5 n_184:3 n_184:4 0.3595
6 n_184:4 n_184:5 0.2471
7 n_184:5 g1934_u0:a 0.0832
*END

*D_NET i_tx_phy_hold_reg_d_15 0.8209
*CONN
*I i_tx_phy_hold_reg_d_reg_5__u0:o O
*I g1984_u0:b I
*CAP
1 i_tx_phy_hold_reg_d_reg_5__u0:o 0.3736
2 i_tx_phy_hold_reg_d_15:1 0.3644
3 g1984_u0:b 0.0829
*RES
2 i_tx_phy_hold_reg_d_reg_5__u0:o i_tx_phy_hold_reg_d_15:1 0.1977
3 i_tx_phy_hold_reg_d_15:1 g1984_u0:b 0.4694
*END

*D_NET g2068_p 2.0853
*CONN
*I g2068_u0:o O
*I g2068_u1:a I
*CAP
1 g2068_u0:o 0.3882
2 g2068_p:1 0.0413
3 g2068_p:2 0.4651
4 g2068_p:3 0.4065
5 g2068_p:4 0.3164
6 g2068_p:5 0.3513
7 g2068_u1:a 0.1165
*RES
2 g2068_u0:o g2068_p:1 0.0986
3 g2068_p:1 g2068_p:2 0.2243
4 g2068_p:2 g2068_p:3 0.1286
5 g2068_p:3 g2068_p:4 0.4269
6 g2068_p:4 g2068_p:5 0.2482
7 g2068_p:5 g2068_u1:a 0.2195
*END

*D_NET n_61 1.7569
*CONN
*I g2100_u0:o O
*I g2505_u0:a I
*CAP
1 g2100_u0:o 0.4091
2 n_61:1 0.3587
3 n_61:2 0.1869
4 n_61:3 0.4974
5 g2505_u0:a 0.3047
*RES
2 g2100_u0:o n_61:1 0.1200
3 n_61:1 n_61:2 0.4969
4 n_61:2 n_61:3 0.1210
5 n_61:3 g2505_u0:a 0.1733
*END

*D_NET n_574 1.1896
*CONN
*I g2390_u0:o O
*I g1958_u0:a I
*CAP
1 g2390_u0:o 0.0283
2 n_574:1 0.2945
3 n_574:2 0.3177
4 n_574:3 0.2101
5 g1958_u0:a 0.3390
*RES
2 g2390_u0:o n_574:1 0.2046
3 n_574:1 n_574:2 0.3404
4 n_574:2 n_574:3 0.1317
5 n_574:3 g1958_u0:a 0.3617
*END

*D_NET n_362 1.2055
*CONN
*I g1869_u0:o O
*I rst_cnt_reg_0__u0:d I
*CAP
1 g1869_u0:o 0.3629
2 n_362:1 0.3900
3 n_362:2 0.0557
4 n_362:3 0.1253
5 rst_cnt_reg_0__u0:d 0.2716
*RES
2 g1869_u0:o n_362:1 0.3735
3 n_362:1 n_362:2 0.1079
4 n_362:2 n_362:3 0.3323
5 n_362:3 rst_cnt_reg_0__u0:d 0.2907
*END

*D_NET g1778_sb 1.4383
*CONN
*I g1778_u0:o O
*I g1778_u1:b I
*CAP
1 g1778_u0:o 0.4966
2 g1778_sb:1 0.2702
3 g1778_sb:2 0.2135
4 g1778_sb:3 0.0419
5 g1778_sb:4 0.2773
6 g1778_sb:5 0.0903
7 g1778_u1:b 0.0485
*RES
2 g1778_u0:o g1778_sb:1 0.4602
3 g1778_sb:1 g1778_sb:2 0.4262
4 g1778_sb:2 g1778_sb:3 0.2009
5 g1778_sb:3 g1778_sb:4 0.3114
6 g1778_sb:4 g1778_sb:5 0.3090
7 g1778_sb:5 g1778_u1:b 0.3972
*END

*D_NET n_444 1.1430
*CONN
*I g1760_u0:o O
*I g1707_u0:b I
*CAP
1 g1760_u0:o 0.2443
2 n_444:1 0.3734
3 n_444:2 0.1567
4 n_444:3 0.1247
5 g1707_u0:b 0.2439
*RES
2 g1760_u0:o n_444:1 0.2588
3 n_444:1 n_444:2 0.4474
4 n_444:2 n_444:3 0.3528
5 n_444:3 g1707_u0:b 0.0472
*END

*D_NET n_782 1.3929
*CONN
*I g1998_u0:o O
*I g1711_u0:a I
*CAP
1 g1998_u0:o 0.1981
2 n_782:1 0.0169
3 n_782:2 0.4026
4 n_782:3 0.4684
5 n_782:4 0.2490
6 g1711_u0:a 0.0579
*RES
2 g1998_u0:o n_782:1 0.0423
3 n_782:1 n_782:2 0.2861
4 n_782:2 n_782:3 0.4278
5 n_782:3 n_782:4 0.3875
6 n_782:4 g1711_u0:a 0.4796
*END

*D_NET TAUNET_31 1.0064
*CONN
*I i_tx_phy_tx_ip_sync_reg_u0:o O
*I TAUGATE_31:a I
*CAP
1 i_tx_phy_tx_ip_sync_reg_u0:o 0.1554
2 TAUNET_31:1 0.4380
3 TAUGATE_31:a 0.4130
*RES
2 i_tx_phy_tx_ip_sync_reg_u0:o TAUNET_31:1 0.4990
3 TAUNET_31:1 TAUGATE_31:a 0.2134
*END

*D_NET i_tx_phy_sd_bs_o 3.6840
*CONN
*I i_tx_phy_sd_bs_o_reg_u0:o O
*I g2048_u0:b I
*I g2058_u0:b I
*I g2138_u0:a I
*CAP
1 i_tx_phy_sd_bs_o_reg_u0:o 0.4947
2 i_tx_phy_sd_bs_o:1 0.2854
3 i_tx_phy_sd_bs_o:2 0.4464
4 i_tx_phy_sd_bs_o:3 0.2438
5 i_tx_phy_sd_bs_o:4 0.2969
6 g2048_u0:b 0.3091
7 i_tx_phy_sd_bs_o:5 0.2468
8 i_tx_phy_sd_bs_o:6 0.4002
9 i_tx_phy_sd_bs_o:7 0.3652
10 g2058_u0:b 0.1857
11 i_tx_phy_sd_bs_o:8 0.1130
12 i_tx_phy_sd_bs_o:9 0.1026
13 g2138_u0:a 0.1939
*RES
2 i_tx_phy_sd_bs_o_reg_u0:o i_tx_phy_sd_bs_o:1 0.5006
3 i_tx_phy_sd_bs_o:1 i_tx_phy_sd_bs_o:2 0.2264
4 i_tx_phy_sd_bs_o:2 i_tx_phy_sd_bs_o:3 0.3973
5 i_tx_phy_sd_bs_o:3 i_tx_phy_sd_bs_o:4 0.2044
6 i_tx_phy_sd_bs_o:4 g2048_u0:b 0.1531
7 i_tx_phy_sd_bs_o:4 i_tx_phy_sd_bs_o:5 0.0562
8 i_tx_phy_sd_bs_o:5 i_tx_phy_sd_bs_o:6 0.0882
9 i_tx_phy_sd_bs_o:6 i_tx_phy_sd_bs_o:7 0.4386
10 i_tx_phy_sd_bs_o:7 g2058_u0:b 0.2715
11 i_tx_phy_sd_bs_o:7 i_tx_phy_sd_bs_o:8 0.1095
12 i_tx_phy_sd_bs_o:8 i_tx_phy_sd_bs_o:9 0.0212
13 i_tx_phy_sd_bs_o:9 g2138_u0:a 0.1417
*END

*D_NET n_341 1.5062
*CONN
*I g1868_u0:o O
*I g1815_u0:c I
*CAP
1 g1868_u0:o 0.4826
2 n_341:1 0.4033
3 n_341:2 0.3663
4 g1815_u0:c 0.2540
*RES
2 g1868_u0:o n_341:1 0.0526
3 n_341:1 n_341:2 0.2388
4 n_341:2 g1815_u0:c 0.1787
*END

*D_NET DataOut_i_4_ 0.4944
*CONN
*P DataOut_i_4_ I
*I g1780_u1:a I
*CAP
1 DataOut_i_4_ 0.0603
2 DataOut_i_4_:1 0.3102
3 g1780_u1:a 0.1239
*RES
2 DataOut_i_4_ DataOut_i_4_:1 0.2473
3 DataOut_i_4_:1 g1780_u1:a 0.0055
*END

*D_NET TAUNET_381 1.2459
*CONN
*I TAUGATE_280:o O
*I TAUGATE_381:a I
*CAP
1 TAUGATE_280:o 0.2412
2 TAUNET_381:1 0.4441
3 TAUNET_381:2 0.4218
4 TAUNET_381:3 0.0848
5 TAUNET_381:4 0.0266
6 TAUGATE_381:a 0.0274
*RES
2 TAUGATE_280:o TAUNET_381:1 0.4218
3 TAUNET_381:1 TAUNET_381:2 0.2061
4 TAUNET_381:2 TAUNET_381:3 0.2110
5 TAUNET_381:3 TAUNET_381:4 0.4583
6 TAUNET_381:4 TAUGATE_381:a 0.3985
*END

*D_NET TAUNET_9 1.9898
*CONN
*I g1812_u0:o O
*I TAUGATE_9:a I
*CAP
1 g1812_u0:o 0.0725
2 TAUNET_9:1 0.3124
3 TAUNET_9:2 0.3685
4 TAUNET_9:3 0.4317
5 TAUNET_9:4 0.1801
6 TAUNET_9:5 0.2826
7 TAUGATE_9:a 0.3420
*RES
2 g1812_u0:o TAUNET_9:1 0.0965
3 TAUNET_9:1 TAUNET_9:2 0.2555
4 TAUNET_9:2 TAUNET_9:3 0.1304
5 TAUNET_9:3 TAUNET_9:4 0.3675
6 TAUNET_9:4 TAUNET_9:5 0.4634
7 TAUNET_9:5 TAUGATE_9:a 0.2869
*END

*D_NET i_rx_phy_bit_cnt_2_ 3.3817
*CONN
*I i_rx_phy_bit_cnt_reg_2__u0:o O
*I g1744_u0:c I
*I g1881_u1:b I
*I g1902_u0:a I
*I g1824_u0:b I
*I g1881_u0:a I
*CAP
1 i_rx_phy_bit_cnt_reg_2__u0:o 0.1182
2 i_rx_phy_bit_cnt_2_:1 0.0608
3 g1881_u1:b 0.3721
4 i_rx_phy_bit_cnt_2_:2 0.0264
5 i_rx_phy_bit_cnt_2_:3 0.2502
6 g1744_u0:c 0.2506
7 i_rx_phy_bit_cnt_2_:4 0.1704
8 i_rx_phy_bit_cnt_2_:5 0.2303
9 i_rx_phy_bit_cnt_2_:6 0.0121
10 g1902_u0:a 0.0620
11 i_rx_phy_bit_cnt_2_:7 0.3195
12 i_rx_phy_bit_cnt_2_:8 0.4748
13 i_rx_phy_bit_cnt_2_:9 0.2505
14 i_rx_phy_bit_cnt_2_:10 0.2036
15 i_rx_phy_bit_cnt_2_:11 0.3990
16 g1824_u0:b 0.0185
17 i_rx_phy_bit_cnt_2_:12 0.0406
18 i_rx_phy_bit_cnt_2_:13 0.0917
19 i_rx_phy_bit_cnt_2_:14 0.0078
20 g1881_u0:a 0.0227
*RES
2 i_rx_phy_bit_cnt_reg_2__u0:o i_rx_phy_bit_cnt_2_:1 0.4648
3 i_rx_phy_bit_cnt_2_:1 g1881_u1:b 0.2376
4 i_rx_phy_bit_cnt_2_:1 i_rx_phy_bit_cnt_2_:2 0.4486
5 i_rx_phy_bit_cnt_2_:2 i_rx_phy_bit_cnt_2_:3 0.0641
6 i_rx_phy_bit_cnt_2_:3 g1744_u0:c 0.0138
7 i_rx_phy_bit_cnt_2_:1 i_rx_phy_bit_cnt_2_:4 0.0267
8 i_rx_phy_bit_cnt_2_:4 i_rx_phy_bit_cnt_2_:5 0.1278
9 i_rx_phy_bit_cnt_2_:5 i_rx_phy_bit_cnt_2_:6 0.1079
10 i_rx_phy_bit_cnt_2_:6 g1902_u0:a 0.3621
11 i_rx_phy_bit_cnt_2_:4 i_rx_phy_bit_cnt_2_:7 0.3777
12 i_rx_phy_bit_cnt_2_:7 i_rx_phy_bit_cnt_2_:8 0.2437
13 i_rx_phy_bit_cnt_2_:8 i_rx_phy_bit_cnt_2_:9 0.3641
14 i_rx_phy_bit_cnt_2_:9 i_rx_phy_bit_cnt_2_:10 0.1411
15 i_rx_phy_bit_cnt_2_:10 i_rx_phy_bit_cnt_2_:11 0.2452
16 i_rx_phy_bit_cnt_2_:11 g1824_u0:b 0.2723
17 i_rx_phy_bit_cnt_2_:4 i_rx_phy_bit_cnt_2_:12 0.0264
18 i_rx_phy_bit_cnt_2_:12 i_rx_phy_bit_cnt_2_:13 0.0174
19 i_rx_phy_bit_cnt_2_:13 i_rx_phy_bit_cnt_2_:14 0.1906
20 i_rx_phy_bit_cnt_2_:14 g1881_u0:a 0.1553
*END

*D_NET g1780_sb 1.3954
*CONN
*I g1780_u0:o O
*I g1780_u1:b I
*CAP
1 g1780_u0:o 0.2944
2 g1780_sb:1 0.0209
3 g1780_sb:2 0.1182
4 g1780_sb:3 0.1067
5 g1780_sb:4 0.4881
6 g1780_u1:b 0.3672
*RES
2 g1780_u0:o g1780_sb:1 0.4629
3 g1780_sb:1 g1780_sb:2 0.1157
4 g1780_sb:2 g1780_sb:3 0.1901
5 g1780_sb:3 g1780_sb:4 0.2138
6 g1780_sb:4 g1780_u1:b 0.5008
*END

*D_NET n_948 2.9905
*CONN
*I g2640_u0:o O
*I g2043_u0:a I
*I g15_u0:a I
*CAP
1 g2640_u0:o 0.3428
2 n_948:1 0.2733
3 n_948:2 0.1266
4 n_948:3 0.3814
5 g15_u0:a 0.1363
6 n_948:4 0.1159
7 n_948:5 0.4527
8 n_948:6 0.1465
9 n_948:7 0.1463
10 n_948:8 0.4621
11 g2043_u0:a 0.4065
*RES
2 g2640_u0:o n_948:1 0.3277
3 n_948:1 n_948:2 0.3144
4 n_948:2 n_948:3 0.4503
5 n_948:3 g15_u0:a 0.3676
6 n_948:1 n_948:4 0.0227
7 n_948:4 n_948:5 0.2236
8 n_948:5 n_948:6 0.4114
9 n_948:6 n_948:7 0.0715
10 n_948:7 n_948:8 0.1546
11 n_948:8 g2043_u0:a 0.1861
*END

*D_NET g2128_p 0.4780
*CONN
*I g2128_u0:o O
*I g2128_u1:a I
*CAP
1 g2128_u0:o 0.3452
2 g2128_p:1 0.1217
3 g2128_u1:a 0.0111
*RES
2 g2128_u0:o g2128_p:1 0.1222
3 g2128_p:1 g2128_u1:a 0.0613
*END

*D_NET n_292 2.0882
*CONN
*I g1809_u0:o O
*I g1726_u0:b I
*CAP
1 g1809_u0:o 0.4407
2 n_292:1 0.2563
3 n_292:2 0.2595
4 n_292:3 0.2603
5 n_292:4 0.2874
6 n_292:5 0.3072
7 g1726_u0:b 0.2768
*RES
2 g1809_u0:o n_292:1 0.1679
3 n_292:1 n_292:2 0.2053
4 n_292:2 n_292:3 0.2140
5 n_292:3 n_292:4 0.3306
6 n_292:4 n_292:5 0.1569
7 n_292:5 g1726_u0:b 0.2580
*END

*D_NET n_952 8.8625
*CONN
*I TAUGATE_32:o O
*I g2392_u0:b I
*I g25_u0:b I
*I g1840_u0:c I
*I g1978_u0:b I
*I g2397_u0:a I
*I g2644_u0:b I
*I g2628_u0:c I
*CAP
1 TAUGATE_32:o 0.4796
2 n_952:1 0.4946
3 n_952:2 0.4608
4 n_952:3 0.4692
5 n_952:4 0.4766
6 g1840_u0:c 0.0589
7 n_952:5 0.1762
8 n_952:6 0.4748
9 g25_u0:b 0.0806
10 n_952:7 0.2987
11 n_952:8 0.2640
12 n_952:9 0.1831
13 n_952:10 0.4110
14 g2392_u0:b 0.0191
15 n_952:11 0.3538
16 n_952:12 0.4649
17 n_952:13 0.0482
18 n_952:14 0.1062
19 n_952:15 0.2963
20 g1978_u0:b 0.4911
21 n_952:16 0.0745
22 g2397_u0:a 0.1738
23 n_952:17 0.3095
24 n_952:18 0.4895
25 n_952:19 0.4033
26 g2644_u0:b 0.2734
27 n_952:20 0.0683
28 n_952:21 0.2135
29 n_952:22 0.4484
30 n_952:23 0.1379
31 n_952:24 0.1139
32 g2628_u0:c 0.0489
*RES
2 TAUGATE_32:o n_952:1 0.0962
3 n_952:1 n_952:2 0.2415
4 n_952:2 n_952:3 0.1750
5 n_952:3 n_952:4 0.4103
6 n_952:4 g1840_u0:c 0.0845
7 n_952:2 n_952:5 0.0407
8 n_952:5 n_952:6 0.2069
9 n_952:6 g25_u0:b 0.0491
10 n_952:6 n_952:7 0.3538
11 n_952:7 n_952:8 0.4300
12 n_952:8 n_952:9 0.3629
13 n_952:9 n_952:10 0.0787
14 n_952:10 g2392_u0:b 0.2007
15 n_952:9 n_952:11 0.2002
16 n_952:11 n_952:12 0.2573
17 n_952:12 n_952:13 0.3761
18 n_952:13 n_952:14 0.0616
19 n_952:14 n_952:15 0.4298
20 n_952:15 g1978_u0:b 0.2857
21 n_952:8 n_952:16 0.4336
22 n_952:16 g2397_u0:a 0.4556
23 n_952:6 n_952:17 0.3461
24 n_952:17 n_952:18 0.3729
25 n_952:18 n_952:19 0.0418
26 n_952:19 g2644_u0:b 0.3671
27 n_952:6 n_952:20 0.0861
28 n_952:20 n_952:21 0.1477
29 n_952:21 n_952:22 0.4806
30 n_952:22 n_952:23 0.3473
31 n_952:23 n_952:24 0.1114
32 n_952:24 g2628_u0:c 0.0198
*END

*D_NET n_737 9.9322
*CONN
*I i_tx_phy_state_reg_1__u0:o O
*I g42_u0:a I
*I g2056_u0:c I
*I g2656_u0:b I
*I g1880_u0:c I
*I TAUGATE_7:a I
*I g25_u0:a I
*I g2397_u0:b I
*I g2644_u0:c I
*I g2628_u0:a I
*I g2662_u0:a I
*CAP
1 i_tx_phy_state_reg_1__u0:o 0.1100
2 n_737:1 0.3290
3 n_737:2 0.1592
4 n_737:3 0.4236
5 TAUGATE_7:a 0.3328
6 n_737:4 0.4963
7 g2056_u0:c 0.2377
8 n_737:5 0.3400
9 n_737:6 0.2352
10 n_737:7 0.3112
11 n_737:8 0.1345
12 g2656_u0:b 0.4134
13 n_737:9 0.2343
14 n_737:10 0.1106
15 n_737:11 0.0283
16 g1880_u0:c 0.2644
17 n_737:12 0.2939
18 g42_u0:a 0.2177
19 n_737:13 0.4154
20 n_737:14 0.4205
21 g25_u0:a 0.1921
22 n_737:15 0.3943
23 n_737:16 0.0450
24 n_737:17 0.3586
25 g2397_u0:b 0.1804
26 n_737:18 0.0277
27 n_737:19 0.2232
28 n_737:20 0.0700
29 n_737:21 0.3825
30 g2644_u0:c 0.4916
31 n_737:22 0.0605
32 n_737:23 0.1555
33 n_737:24 0.4347
34 g2628_u0:a 0.2976
35 n_737:25 0.2983
36 n_737:26 0.4269
37 n_737:27 0.0493
38 n_737:28 0.0341
39 g2662_u0:a 0.3020
*RES
2 i_tx_phy_state_reg_1__u0:o n_737:1 0.1906
3 n_737:1 n_737:2 0.5003
4 n_737:2 n_737:3 0.4347
5 n_737:3 TAUGATE_7:a 0.3044
6 n_737:1 n_737:4 0.2571
7 n_737:4 g2056_u0:c 0.3610
8 n_737:3 n_737:5 0.0741
9 n_737:5 n_737:6 0.4290
10 n_737:6 n_737:7 0.4891
11 n_737:7 n_737:8 0.0621
12 n_737:8 g2656_u0:b 0.2122
13 n_737:2 n_737:9 0.3395
14 n_737:9 n_737:10 0.4160
15 n_737:10 n_737:11 0.1311
16 n_737:11 g1880_u0:c 0.1702
17 n_737:1 n_737:12 0.0520
18 n_737:12 g42_u0:a 0.1787
19 n_737:6 n_737:13 0.3303
20 n_737:13 n_737:14 0.0500
21 n_737:14 g25_u0:a 0.3450
22 n_737:8 n_737:15 0.2132
23 n_737:15 n_737:16 0.3448
24 n_737:16 n_737:17 0.2539
25 n_737:17 g2397_u0:b 0.0169
26 n_737:11 n_737:18 0.0258
27 n_737:18 n_737:19 0.0722
28 n_737:19 n_737:20 0.0268
29 n_737:20 n_737:21 0.0274
30 n_737:21 g2644_u0:c 0.0955
31 n_737:6 n_737:22 0.3531
32 n_737:22 n_737:23 0.0316
33 n_737:23 n_737:24 0.1823
34 n_737:24 g2628_u0:a 0.0755
35 n_737:15 n_737:25 0.3389
36 n_737:25 n_737:26 0.4000
37 n_737:26 n_737:27 0.0188
38 n_737:27 n_737:28 0.4709
39 n_737:28 g2662_u0:a 0.4204
*END

*D_NET n_228 0.6936
*CONN
*I g1932_u0:o O
*I g1877_u0:a I
*CAP
1 g1932_u0:o 0.2688
2 n_228:1 0.3051
3 g1877_u0:a 0.1197
*RES
2 g1932_u0:o n_228:1 0.2956
3 n_228:1 g1877_u0:a 0.2210
*END

*D_NET n_701 1.0352
*CONN
*I g2461_u0:o O
*I g36_u0:c I
*CAP
1 g2461_u0:o 0.2798
2 n_701:1 0.0137
3 n_701:2 0.2108
4 n_701:3 0.3101
5 n_701:4 0.0161
6 g36_u0:c 0.2047
*RES
2 g2461_u0:o n_701:1 0.3729
3 n_701:1 n_701:2 0.0610
4 n_701:2 n_701:3 0.4010
5 n_701:3 n_701:4 0.2910
6 n_701:4 g36_u0:c 0.3768
*END

*D_NET n_268 1.4722
*CONN
*I g1907_u0:o O
*I g1838_u0:c I
*CAP
1 g1907_u0:o 0.1250
2 n_268:1 0.3715
3 n_268:2 0.3144
4 n_268:3 0.3618
5 n_268:4 0.0820
6 g1838_u0:c 0.2174
*RES
2 g1907_u0:o n_268:1 0.3638
3 n_268:1 n_268:2 0.4097
4 n_268:2 n_268:3 0.2418
5 n_268:3 n_268:4 0.4080
6 n_268:4 g1838_u0:c 0.3118
*END

*D_NET TAUNET_661 6.7672
*CONN
*I i_tx_phy_append_eop_sync3_reg_u0:o O
*I TAUGATE_661:a I
*I g1977_u0:c I
*I g2626_u0:a I
*I g1978_u0:c I
*I g2012_u0:a I
*CAP
1 i_tx_phy_append_eop_sync3_reg_u0:o 0.3134
2 TAUNET_661:1 0.1396
3 TAUNET_661:2 0.0910
4 TAUNET_661:3 0.1278
5 TAUNET_661:4 0.3093
6 TAUNET_661:5 0.3342
7 g2012_u0:a 0.2150
8 TAUNET_661:6 0.2677
9 TAUNET_661:7 0.2426
10 TAUNET_661:8 0.1466
11 TAUNET_661:9 0.2784
12 TAUNET_661:10 0.2008
13 g1977_u0:c 0.3776
14 TAUNET_661:11 0.3242
15 TAUNET_661:12 0.2336
16 TAUNET_661:13 0.3863
17 TAUNET_661:14 0.2365
18 g2626_u0:a 0.1037
19 TAUNET_661:15 0.2417
20 TAUNET_661:16 0.2444
21 TAUNET_661:17 0.4262
22 TAUNET_661:18 0.3737
23 TAUNET_661:19 0.3015
24 g1978_u0:c 0.1830
25 TAUNET_661:20 0.1111
26 TAUNET_661:21 0.3711
27 TAUNET_661:22 0.0512
28 TAUGATE_661:a 0.1351
*RES
2 i_tx_phy_append_eop_sync3_reg_u0:o TAUNET_661:1 0.0109
3 TAUNET_661:1 TAUNET_661:2 0.1830
4 TAUNET_661:2 TAUNET_661:3 0.2298
5 TAUNET_661:3 TAUNET_661:4 0.0712
6 TAUNET_661:4 TAUNET_661:5 0.0044
7 TAUNET_661:5 g2012_u0:a 0.1986
8 TAUNET_661:3 TAUNET_661:6 0.2937
9 TAUNET_661:6 TAUNET_661:7 0.0093
10 TAUNET_661:7 TAUNET_661:8 0.2822
11 TAUNET_661:8 TAUNET_661:9 0.4311
12 TAUNET_661:9 TAUNET_661:10 0.0309
13 TAUNET_661:10 g1977_u0:c 0.1138
14 TAUNET_661:8 TAUNET_661:11 0.3572
15 TAUNET_661:11 TAUNET_661:12 0.2211
16 TAUNET_661:12 TAUNET_661:13 0.2185
17 TAUNET_661:13 TAUNET_661:14 0.2266
18 TAUNET_661:14 g2626_u0:a 0.2538
19 TAUNET_661:4 TAUNET_661:15 0.3035
20 TAUNET_661:15 TAUNET_661:16 0.4053
21 TAUNET_661:16 TAUNET_661:17 0.0863
22 TAUNET_661:17 TAUNET_661:18 0.2362
23 TAUNET_661:18 TAUNET_661:19 0.1365
24 TAUNET_661:19 g1978_u0:c 0.0277
25 TAUNET_661:17 TAUNET_661:20 0.0984
26 TAUNET_661:20 TAUNET_661:21 0.0368
27 TAUNET_661:21 TAUNET_661:22 0.4376
28 TAUNET_661:22 TAUGATE_661:a 0.1423
*END

*D_NET n_754 9.0336
*CONN
*I TAUGATE_703:o O
*I g2502_u0:a I
*I g2431_u0:b I
*I g64_u0:a I
*I g1731_u0:a I
*I TAUGATE_57:a I
*I g1734_u0:a I
*I g2413_u0:a I
*I g2415_u0:a I
*CAP
1 TAUGATE_703:o 0.1146
2 n_754:1 0.4610
3 n_754:2 0.4832
4 n_754:3 0.2776
5 n_754:4 0.3781
6 g64_u0:a 0.3766
7 n_754:5 0.2614
8 g2431_u0:b 0.3010
9 n_754:6 0.3810
10 n_754:7 0.1100
11 g2502_u0:a 0.1662
12 n_754:8 0.2382
13 n_754:9 0.4109
14 n_754:10 0.0945
15 n_754:11 0.2326
16 g1731_u0:a 0.0121
17 n_754:12 0.4392
18 n_754:13 0.4048
19 n_754:14 0.0368
20 n_754:15 0.3283
21 TAUGATE_57:a 0.2266
22 n_754:16 0.2201
23 n_754:17 0.2966
24 n_754:18 0.3013
25 g1734_u0:a 0.0758
26 n_754:19 0.0497
27 n_754:20 0.4938
28 n_754:21 0.3913
29 g2413_u0:a 0.2131
30 n_754:22 0.4527
31 n_754:23 0.2663
32 n_754:24 0.3641
33 g2415_u0:a 0.1740
*RES
2 TAUGATE_703:o n_754:1 0.0185
3 n_754:1 n_754:2 0.3877
4 n_754:2 n_754:3 0.1588
5 n_754:3 n_754:4 0.3738
6 n_754:4 g64_u0:a 0.4556
7 n_754:2 n_754:5 0.2164
8 n_754:5 g2431_u0:b 0.4372
9 n_754:1 n_754:6 0.3178
10 n_754:6 n_754:7 0.2541
11 n_754:7 g2502_u0:a 0.2497
12 n_754:2 n_754:8 0.2674
13 n_754:8 n_754:9 0.2072
14 n_754:9 n_754:10 0.0414
15 n_754:10 n_754:11 0.2455
16 n_754:11 g1731_u0:a 0.1970
17 n_754:11 n_754:12 0.4199
18 n_754:12 n_754:13 0.3736
19 n_754:13 n_754:14 0.3306
20 n_754:14 n_754:15 0.3042
21 n_754:15 TAUGATE_57:a 0.1317
22 n_754:5 n_754:16 0.0262
23 n_754:16 n_754:17 0.3812
24 n_754:17 n_754:18 0.0656
25 n_754:18 g1734_u0:a 0.1550
26 n_754:14 n_754:19 0.3201
27 n_754:19 n_754:20 0.0320
28 n_754:20 n_754:21 0.2786
29 n_754:21 g2413_u0:a 0.3378
30 n_754:19 n_754:22 0.2701
31 n_754:22 n_754:23 0.3351
32 n_754:23 n_754:24 0.4105
33 n_754:24 g2415_u0:a 0.3004
*END

*D_NET n_410 0.6859
*CONN
*I g1824_u0:o O
*I g1764_u0:b I
*CAP
1 g1824_u0:o 0.1341
2 n_410:1 0.1706
3 g1764_u0:b 0.3812
*RES
2 g1824_u0:o n_410:1 0.0751
3 n_410:1 g1764_u0:b 0.1227
*END

*D_NET n_873 8.9334
*CONN
*I g2593_u0:o O
*I g2087_u0:b I
*I g1879_u0:c I
*I g2109_u0:b I
*I g1937_u0:d I
*I g2104_u0:b I
*I g2088_u0:b I
*I g2115_u0:b I
*I g34_u0:a I
*CAP
1 g2593_u0:o 0.0059
2 n_873:1 0.3839
3 n_873:2 0.1840
4 n_873:3 0.4010
5 n_873:4 0.3573
6 g2087_u0:b 0.4559
7 n_873:5 0.1166
8 n_873:6 0.1660
9 g1879_u0:c 0.2177
10 n_873:7 0.1932
11 n_873:8 0.0675
12 n_873:9 0.0053
13 n_873:10 0.1459
14 n_873:11 0.0437
15 g2109_u0:b 0.4598
16 n_873:12 0.4518
17 n_873:13 0.0570
18 n_873:14 0.4909
19 n_873:15 0.0572
20 n_873:16 0.5008
21 g1937_u0:d 0.1013
22 n_873:17 0.2848
23 n_873:18 0.2246
24 n_873:19 0.3320
25 g2104_u0:b 0.3870
26 n_873:20 0.1873
27 n_873:21 0.1599
28 n_873:22 0.3589
29 g2088_u0:b 0.4697
30 n_873:23 0.3908
31 g2115_u0:b 0.2921
32 n_873:24 0.2111
33 n_873:25 0.3010
34 n_873:26 0.1515
35 n_873:27 0.0492
36 g34_u0:a 0.2707
*RES
2 g2593_u0:o n_873:1 0.3575
3 n_873:1 n_873:2 0.1715
4 n_873:2 n_873:3 0.3050
5 n_873:3 n_873:4 0.3594
6 n_873:4 g2087_u0:b 0.4902
7 n_873:2 n_873:5 0.2908
8 n_873:5 n_873:6 0.3318
9 n_873:6 g1879_u0:c 0.3308
10 n_873:6 n_873:7 0.3838
11 n_873:7 n_873:8 0.2033
12 n_873:8 n_873:9 0.3263
13 n_873:9 n_873:10 0.4574
14 n_873:10 n_873:11 0.4683
15 n_873:11 g2109_u0:b 0.1543
16 n_873:4 n_873:12 0.2457
17 n_873:12 n_873:13 0.4210
18 n_873:13 n_873:14 0.2594
19 n_873:14 n_873:15 0.3565
20 n_873:15 n_873:16 0.4074
21 n_873:16 g1937_u0:d 0.4309
22 n_873:15 n_873:17 0.3663
23 n_873:17 n_873:18 0.1512
24 n_873:18 n_873:19 0.1368
25 n_873:19 g2104_u0:b 0.4493
26 n_873:19 n_873:20 0.4844
27 n_873:20 n_873:21 0.0401
28 n_873:21 n_873:22 0.2861
29 n_873:22 g2088_u0:b 0.1883
30 n_873:14 n_873:23 0.4162
31 n_873:23 g2115_u0:b 0.1285
32 n_873:2 n_873:24 0.0711
33 n_873:24 n_873:25 0.2365
34 n_873:25 n_873:26 0.0021
35 n_873:26 n_873:27 0.2080
36 n_873:27 g34_u0:a 0.3529
*END

*D_NET n_710 1.9943
*CONN
*I g2466_u0:o O
*I g2677_u0:a I
*CAP
1 g2466_u0:o 0.3648
2 n_710:1 0.3187
3 n_710:2 0.4272
4 n_710:3 0.0224
5 n_710:4 0.4026
6 n_710:5 0.2784
7 g2677_u0:a 0.1803
*RES
2 g2466_u0:o n_710:1 0.0882
3 n_710:1 n_710:2 0.2924
4 n_710:2 n_710:3 0.4780
5 n_710:3 n_710:4 0.3510
6 n_710:4 n_710:5 0.1182
7 n_710:5 g2677_u0:a 0.2614
*END

*D_NET TAUNET_72 3.2119
*CONN
*I i_rx_phy_fs_state_reg_2__u0:o O
*I TAUGATE_72:a I
*I g2642_u0:a I
*I g2668_u0:b I
*CAP
1 i_rx_phy_fs_state_reg_2__u0:o 0.2582
2 TAUNET_72:1 0.0762
3 TAUNET_72:2 0.1986
4 TAUNET_72:3 0.3922
5 TAUNET_72:4 0.3950
6 TAUNET_72:5 0.2666
7 TAUGATE_72:a 0.4255
8 TAUNET_72:6 0.3579
9 TAUNET_72:7 0.1300
10 g2642_u0:a 0.3795
11 TAUNET_72:8 0.3126
12 g2668_u0:b 0.0195
*RES
2 i_rx_phy_fs_state_reg_2__u0:o TAUNET_72:1 0.4671
3 TAUNET_72:1 TAUNET_72:2 0.2972
4 TAUNET_72:2 TAUNET_72:3 0.3936
5 TAUNET_72:3 TAUNET_72:4 0.4880
6 TAUNET_72:4 TAUNET_72:5 0.4169
7 TAUNET_72:5 TAUGATE_72:a 0.3167
8 TAUNET_72:4 TAUNET_72:6 0.2362
9 TAUNET_72:6 TAUNET_72:7 0.1908
10 TAUNET_72:7 g2642_u0:a 0.1996
11 TAUNET_72:2 TAUNET_72:8 0.0541
12 TAUNET_72:8 g2668_u0:b 0.3700
*END

*D_NET n_237 1.9959
*CONN
*I g2060_u0:o O
*I g1966_u0:a I
*CAP
1 g2060_u0:o 0.3466
2 n_237:1 0.4038
3 n_237:2 0.1954
4 n_237:3 0.0063
5 n_237:4 0.4904
6 n_237:5 0.0915
7 g1966_u0:a 0.4619
*RES
2 g2060_u0:o n_237:1 0.1065
3 n_237:1 n_237:2 0.1990
4 n_237:2 n_237:3 0.2576
5 n_237:3 n_237:4 0.0690
6 n_237:4 n_237:5 0.2231
7 n_237:5 g1966_u0:a 0.2934
*END

*D_NET n_977 0.5565
*CONN
*I g2664_u0:o O
*I g39_u0:a I
*CAP
1 g2664_u0:o 0.0281
2 n_977:1 0.2539
3 n_977:2 0.0765
4 g39_u0:a 0.1980
*RES
2 g2664_u0:o n_977:1 0.3226
3 n_977:1 n_977:2 0.1282
4 n_977:2 g39_u0:a 0.2766
*END

*D_NET i_tx_phy_one_cnt_0_ 5.7632
*CONN
*I i_tx_phy_one_cnt_reg_0__u0:o O
*I g2069_u1:c I
*I g2069_u0:b I
*I g2088_u0:a I
*I g2155_u0:a I
*CAP
1 i_tx_phy_one_cnt_reg_0__u0:o 0.4267
2 i_tx_phy_one_cnt_0_:1 0.3295
3 i_tx_phy_one_cnt_0_:2 0.4724
4 i_tx_phy_one_cnt_0_:3 0.4631
5 i_tx_phy_one_cnt_0_:4 0.0407
6 i_tx_phy_one_cnt_0_:5 0.4130
7 g2155_u0:a 0.3462
8 i_tx_phy_one_cnt_0_:6 0.0346
9 i_tx_phy_one_cnt_0_:7 0.4333
10 i_tx_phy_one_cnt_0_:8 0.0645
11 g2069_u0:b 0.3416
12 i_tx_phy_one_cnt_0_:9 0.2746
13 i_tx_phy_one_cnt_0_:10 0.4228
14 g2088_u0:a 0.1417
15 i_tx_phy_one_cnt_0_:11 0.4926
16 i_tx_phy_one_cnt_0_:12 0.0580
17 i_tx_phy_one_cnt_0_:13 0.3810
18 i_tx_phy_one_cnt_0_:14 0.2195
19 i_tx_phy_one_cnt_0_:15 0.2042
20 g2069_u1:c 0.2030
*RES
2 i_tx_phy_one_cnt_reg_0__u0:o i_tx_phy_one_cnt_0_:1 0.0714
3 i_tx_phy_one_cnt_0_:1 i_tx_phy_one_cnt_0_:2 0.2110
4 i_tx_phy_one_cnt_0_:2 i_tx_phy_one_cnt_0_:3 0.2588
5 i_tx_phy_one_cnt_0_:3 i_tx_phy_one_cnt_0_:4 0.0339
6 i_tx_phy_one_cnt_0_:4 i_tx_phy_one_cnt_0_:5 0.0519
7 i_tx_phy_one_cnt_0_:5 g2155_u0:a 0.4874
8 i_tx_phy_one_cnt_0_:3 i_tx_phy_one_cnt_0_:6 0.4099
9 i_tx_phy_one_cnt_0_:6 i_tx_phy_one_cnt_0_:7 0.1540
10 i_tx_phy_one_cnt_0_:7 i_tx_phy_one_cnt_0_:8 0.0325
11 i_tx_phy_one_cnt_0_:8 g2069_u0:b 0.0924
12 i_tx_phy_one_cnt_0_:4 i_tx_phy_one_cnt_0_:9 0.3754
13 i_tx_phy_one_cnt_0_:9 i_tx_phy_one_cnt_0_:10 0.2016
14 i_tx_phy_one_cnt_0_:10 g2088_u0:a 0.0068
15 i_tx_phy_one_cnt_0_:5 i_tx_phy_one_cnt_0_:11 0.2656
16 i_tx_phy_one_cnt_0_:11 i_tx_phy_one_cnt_0_:12 0.4413
17 i_tx_phy_one_cnt_0_:12 i_tx_phy_one_cnt_0_:13 0.1336
18 i_tx_phy_one_cnt_0_:13 i_tx_phy_one_cnt_0_:14 0.4042
19 i_tx_phy_one_cnt_0_:14 i_tx_phy_one_cnt_0_:15 0.0451
20 i_tx_phy_one_cnt_0_:15 g2069_u1:c 0.2391
*END

*D_NET TAUNET_19 0.9045
*CONN
*I g1857_u0:o O
*I TAUGATE_19:a I
*CAP
1 g1857_u0:o 0.4146
2 TAUNET_19:1 0.2654
3 TAUGATE_19:a 0.2245
*RES
2 g1857_u0:o TAUNET_19:1 0.4797
3 TAUNET_19:1 TAUGATE_19:a 0.0551
*END

*D_NET n_318 22.5286
*CONN
*P rst I
*I g1961_u0:b I
*I g2465_u0:a I
*I g1962_u0:b I
*I g2501_u0:a I
*I g1963_u0:b I
*I g2657_u0:a I
*I g1758_u0:a I
*I g2128_u0:b I
*I g1966_u0:b I
*I g2653_u0:b I
*I g26_u0:c I
*I g2508_u0:c I
*I g1816_u0:c I
*I g1906_u0:b I
*I g2103_u0:a I
*I FE_RC_3_0:a I
*I g2118_u0:b I
*I g1757_u0:b I
*I g1894_u0:c I
*I g1858_u0:c I
*I g1824_u0:c I
*I g1842_u0:b I
*I g1904_u0:b I
*CAP
1 rst 0.0973
2 n_318:1 0.1903
3 n_318:2 0.2143
4 n_318:3 0.0701
5 n_318:4 0.2421
6 n_318:5 0.4634
7 g1966_u0:b 0.2497
8 n_318:6 0.1341
9 g2465_u0:a 0.4054
10 n_318:7 0.0224
11 n_318:8 0.3933
12 g1962_u0:b 0.2244
13 n_318:9 0.4918
14 n_318:10 0.3583
15 n_318:11 0.0251
16 n_318:12 0.0071
17 g2501_u0:a 0.2242
18 n_318:13 0.3703
19 n_318:14 0.0365
20 n_318:15 0.4409
21 n_318:16 0.4335
22 n_318:17 0.3158
23 g1963_u0:b 0.2513
24 n_318:18 0.1489
25 n_318:19 0.3442
26 n_318:20 0.1815
27 n_318:21 0.2112
28 n_318:22 0.3238
29 g2657_u0:a 0.1536
30 n_318:23 0.4392
31 n_318:24 0.4660
32 n_318:25 0.3296
33 n_318:26 0.2711
34 n_318:27 0.1177
35 g1758_u0:a 0.1130
36 n_318:28 0.4330
37 n_318:29 0.3792
38 g2128_u0:b 0.3945
39 n_318:30 0.3986
40 g1961_u0:b 0.0342
41 n_318:31 0.0789
42 n_318:32 0.1418
43 n_318:33 0.2162
44 n_318:34 0.3480
45 n_318:35 0.3423
46 g2653_u0:b 0.3091
47 n_318:36 0.2194
48 n_318:37 0.0694
49 n_318:38 0.1731
50 n_318:39 0.0340
51 g26_u0:c 0.1910
52 n_318:40 0.1398
53 g2508_u0:c 0.3850
54 n_318:41 0.3839
55 n_318:42 0.0178
56 g1816_u0:c 0.1655
57 n_318:43 0.1490
58 g1906_u0:b 0.4082
59 n_318:44 0.3524
60 n_318:45 0.4065
61 g2103_u0:a 0.3838
62 n_318:46 0.2409
63 n_318:47 0.4071
64 FE_RC_3_0:a 0.2078
65 n_318:48 0.0491
66 n_318:49 0.0298
67 n_318:50 0.3266
68 g2118_u0:b 0.3430
69 n_318:51 0.2980
70 n_318:52 0.1661
71 n_318:53 0.4120
72 n_318:54 0.1627
73 n_318:55 0.0181
74 g1757_u0:b 0.3748
75 n_318:56 0.2634
76 g1894_u0:c 0.4707
77 n_318:57 0.3553
78 n_318:58 0.1500
79 g1858_u0:c 0.4264
80 n_318:59 0.0056
81 n_318:60 0.0020
82 g1824_u0:c 0.0117
83 n_318:61 0.1876
84 n_318:62 0.0595
85 n_318:63 0.2550
86 g1842_u0:b 0.4579
87 n_318:64 0.3078
88 n_318:65 0.3570
89 n_318:66 0.3670
90 n_318:67 0.0788
91 n_318:68 0.0125
92 g1904_u0:b 0.4083
*RES
2 rst n_318:1 0.2766
3 n_318:1 n_318:2 0.3086
4 n_318:2 n_318:3 0.2353
5 n_318:3 n_318:4 0.4838
6 n_318:4 n_318:5 0.0722
7 n_318:5 g1966_u0:b 0.3539
8 n_318:4 n_318:6 0.3681
9 n_318:6 g2465_u0:a 0.4419
10 n_318:2 n_318:7 0.4154