*SPEF "IEEE 1481-1998"
*DESIGN "changes"
*DATE "Tue Dec 02 20:48:54 2014"
*VENDOR "TAU 2015 Contest"
*PROGRAM "Benchmark Parasitic Generator"
*VERSION "0.0"
*DESIGN_FLOW "NETLIST_TYPE_VERILOG"
*DIVIDER /
*DELIMITER :
*BUS_DELIMITER [ ]
*T_UNIT 1 PS
*C_UNIT 1 FF
*R_UNIT 1 KOHM
*L_UNIT 1 UH

*D_NET i_tx_phy_hold_reg_7 3.0173
*CONN
*I i_tx_phy_hold_reg_reg_4__u0:o O
*I g1780_u2:a I
*I i_tx_phy_hold_reg_d_reg_4__u0:d I
*CAP
1 i_tx_phy_hold_reg_reg_4__u0:o 0.2611
2 i_tx_phy_hold_reg_7:1 0.4098
3 i_tx_phy_hold_reg_7:2 0.5009
4 i_tx_phy_hold_reg_7:3 0.2843
5 g1780_u2:a 0.2878
6 i_tx_phy_hold_reg_7:4 0.4685
7 i_tx_phy_hold_reg_7:5 0.3070
8 i_tx_phy_hold_reg_7:6 0.3583
9 i_tx_phy_hold_reg_d_reg_4__u0:d 0.1395
*RES
2 i_tx_phy_hold_reg_reg_4__u0:o i_tx_phy_hold_reg_7:1 0.1659
3 i_tx_phy_hold_reg_7:1 i_tx_phy_hold_reg_7:2 0.2742
4 i_tx_phy_hold_reg_7:2 i_tx_phy_hold_reg_7:3 0.3494
5 i_tx_phy_hold_reg_7:3 g1780_u2:a 0.1485
6 i_tx_phy_hold_reg_7:3 i_tx_phy_hold_reg_7:4 0.0646
7 i_tx_phy_hold_reg_7:4 i_tx_phy_hold_reg_7:5 0.0794
8 i_tx_phy_hold_reg_7:5 i_tx_phy_hold_reg_7:6 0.2161
9 i_tx_phy_hold_reg_7:6 i_tx_phy_hold_reg_d_reg_4__u0:d 0.1614
*END

*D_NET TAUNET_401 1.8183
*CONN
*I TAUGATE_421:o O
*I TAUGATE_401:a I
*CAP
1 TAUGATE_421:o 0.3755
2 TAUNET_401:1 0.4559
3 TAUNET_401:2 0.4050
4 TAUNET_401:3 0.0154
5 TAUNET_401:4 0.1670
6 TAUNET_401:5 0.1555
7 TAUGATE_401:a 0.2440
*RES
2 TAUGATE_421:o TAUNET_401:1 0.0332
3 TAUNET_401:1 TAUNET_401:2 0.0406
4 TAUNET_401:2 TAUNET_401:3 0.2732
5 TAUNET_401:3 TAUNET_401:4 0.0073
6 TAUNET_401:4 TAUNET_401:5 0.1308
7 TAUNET_401:5 TAUGATE_401:a 0.1374
*END

*D_NET g2108_p 1.3529
*CONN
*I g2108_u0:o O
*I g2108_u1:a I
*CAP
1 g2108_u0:o 0.3706
2 g2108_p:1 0.4871
3 g2108_u1:a 0.4951
*RES
2 g2108_u0:o g2108_p:1 0.4125
3 g2108_p:1 g2108_u1:a 0.0565
*END

*D_NET n_764 7.4252
*CONN
*I TAUGATE_44:o O
*I g1916_u0:b I
*I g1897_u0:a I
*I g1900_u0:b I
*I g1807_u0:b I
*I g1824_u0:a I
*I g1901_u0:a I
*CAP
1 TAUGATE_44:o 0.0292
2 n_764:1 0.4507
3 n_764:2 0.3356
4 n_764:3 0.3995
5 g1897_u0:a 0.3845
6 n_764:4 0.2529
7 n_764:5 0.2665
8 n_764:6 0.4354
9 n_764:7 0.1977
10 n_764:8 0.0788
11 g1916_u0:b 0.3276
12 n_764:9 0.4017
13 n_764:10 0.4680
14 g1900_u0:b 0.2976
15 n_764:11 0.1868
16 n_764:12 0.4889
17 g1807_u0:b 0.0703
18 n_764:13 0.1808
19 n_764:14 0.0717
20 n_764:15 0.3990
21 n_764:16 0.4035
22 n_764:17 0.0219
23 g1824_u0:a 0.0830
24 n_764:18 0.4382
25 n_764:19 0.3498
26 g1901_u0:a 0.4055
*RES
2 TAUGATE_44:o n_764:1 0.4708
3 n_764:1 n_764:2 0.3056
4 n_764:2 n_764:3 0.3464
5 n_764:3 g1897_u0:a 0.0305
6 n_764:2 n_764:4 0.3833
7 n_764:4 n_764:5 0.3292
8 n_764:5 n_764:6 0.0716
9 n_764:6 n_764:7 0.2236
10 n_764:7 n_764:8 0.1922
11 n_764:8 g1916_u0:b 0.2805
12 n_764:2 n_764:9 0.2331
13 n_764:9 n_764:10 0.2927
14 n_764:10 g1900_u0:b 0.3943
15 n_764:5 n_764:11 0.3298
16 n_764:11 n_764:12 0.4131
17 n_764:12 g1807_u0:b 0.3310
18 n_764:7 n_764:13 0.4539
19 n_764:13 n_764:14 0.1250
20 n_764:14 n_764:15 0.3196
21 n_764:15 n_764:16 0.4976
22 n_764:16 n_764:17 0.3591
23 n_764:17 g1824_u0:a 0.2780
24 n_764:8 n_764:18 0.4519
25 n_764:18 n_764:19 0.4658
26 n_764:19 g1901_u0:a 0.3690
*END

*D_NET TAUNET_449 6.4557
*CONN
*I TAUGATE_604:o O
*I TAUGATE_449:a I
*I g2639_u0:a I
*I g2637_u0:a I
*I g2043_u0:b I
*I g2482_u0:b I
*CAP
1 TAUGATE_604:o 0.0632
2 TAUNET_449:1 0.4700
3 TAUNET_449:2 0.3789
4 TAUNET_449:3 0.3545
5 g2482_u0:b 0.1033
6 TAUNET_449:4 0.3248
7 g2639_u0:a 0.2597
8 TAUNET_449:5 0.2980
9 TAUNET_449:6 0.2454
10 TAUNET_449:7 0.4670
11 TAUNET_449:8 0.1921
12 g2637_u0:a 0.1376
13 TAUNET_449:9 0.4004
14 TAUNET_449:10 0.4814
15 TAUNET_449:11 0.1341
16 TAUNET_449:12 0.3915
17 TAUNET_449:13 0.0282
18 g2043_u0:b 0.3089
19 TAUNET_449:14 0.2288
20 TAUNET_449:15 0.0666
21 TAUNET_449:16 0.3854
22 TAUNET_449:17 0.3580
23 TAUGATE_449:a 0.3774
*RES
2 TAUGATE_604:o TAUNET_449:1 0.4316
3 TAUNET_449:1 TAUNET_449:2 0.1782
4 TAUNET_449:2 TAUNET_449:3 0.4734
5 TAUNET_449:3 g2482_u0:b 0.0376
6 TAUNET_449:3 TAUNET_449:4 0.1267
7 TAUNET_449:4 g2639_u0:a 0.3840
8 TAUNET_449:3 TAUNET_449:5 0.4443
9 TAUNET_449:5 TAUNET_449:6 0.1288
10 TAUNET_449:6 TAUNET_449:7 0.3022
11 TAUNET_449:7 TAUNET_449:8 0.1405
12 TAUNET_449:8 g2637_u0:a 0.0668
13 TAUNET_449:6 TAUNET_449:9 0.0253
14 TAUNET_449:9 TAUNET_449:10 0.3105
15 TAUNET_449:10 TAUNET_449:11 0.1881
16 TAUNET_449:11 TAUNET_449:12 0.2034
17 TAUNET_449:12 TAUNET_449:13 0.1592
18 TAUNET_449:13 g2043_u0:b 0.3147
19 TAUNET_449:7 TAUNET_449:14 0.2731
20 TAUNET_449:14 TAUNET_449:15 0.1525
21 TAUNET_449:15 TAUNET_449:16 0.0518
22 TAUNET_449:16 TAUNET_449:17 0.2548
23 TAUNET_449:17 TAUGATE_449:a 0.2154
*END

