*SPEF "IEEE 1481-1998"
*DESIGN "changes"
*DATE "Tue Dec 02 20:48:51 2014"
*VENDOR "TAU 2015 Contest"
*PROGRAM "Benchmark Parasitic Generator"
*VERSION "0.0"
*DESIGN_FLOW "NETLIST_TYPE_VERILOG"
*DIVIDER /
*DELIMITER :
*BUS_DELIMITER [ ]
*T_UNIT 1 PS
*C_UNIT 1 FF
*R_UNIT 1 KOHM
*L_UNIT 1 UH

*D_NET n_492 1.7439
*CONN
*I TAUGATE_1:o O
*I g54_u0:a I
*CAP
1 TAUGATE_1:o 0.2611
2 n_492:1 0.4098
3 n_492:2 0.5009
4 n_492:3 0.2843
5 g54_u0:a 0.2878
*RES
2 TAUGATE_1:o n_492:1 0.1659
3 n_492:1 n_492:2 0.2742
4 n_492:2 n_492:3 0.3494
5 n_492:3 g54_u0:a 0.1485
*END

*D_NET TAUNET_1 1.3760
*CONN
*I g1724_u0:o O
*I TAUGATE_1:a I
*CAP
1 g1724_u0:o 0.2110
2 TAUNET_1:1 0.3070
3 TAUNET_1:2 0.3583
4 TAUNET_1:3 0.1395
5 TAUNET_1:4 0.0646
6 TAUNET_1:5 0.0794
7 TAUGATE_1:a 0.2161
*RES
2 g1724_u0:o TAUNET_1:1 0.1614
3 TAUNET_1:1 TAUNET_1:2 0.3312
4 TAUNET_1:2 TAUNET_1:3 0.3755
5 TAUNET_1:3 TAUNET_1:4 0.4644
6 TAUNET_1:4 TAUNET_1:5 0.4559
7 TAUNET_1:5 TAUGATE_1:a 0.4050
*END

