*SPEF "IEEE 1481-1998"
*DESIGN "changes"
*DATE "Tue Dec 02 20:48:51 2014"
*VENDOR "TAU 2015 Contest"
*PROGRAM "Benchmark Parasitic Generator"
*VERSION "0.0"
*DESIGN_FLOW "NETLIST_TYPE_VERILOG"
*DIVIDER /
*DELIMITER :
*BUS_DELIMITER [ ]
*T_UNIT 1 PS
*C_UNIT 1 FF
*R_UNIT 1 KOHM
*L_UNIT 1 UH

*D_NET TAUNET_9 1.7439
*CONN
*I g1812_u0:o O
*I TAUGATE_9:a I
*CAP
1 g1812_u0:o 0.2611
2 TAUNET_9:1 0.4098
3 TAUNET_9:2 0.5009
4 TAUNET_9:3 0.2843
5 TAUGATE_9:a 0.2878
*RES
2 g1812_u0:o TAUNET_9:1 0.1659
3 TAUNET_9:1 TAUNET_9:2 0.2742
4 TAUNET_9:2 TAUNET_9:3 0.3494
5 TAUNET_9:3 TAUGATE_9:a 0.1485
*END

*D_NET n_734 1.6938
*CONN
*I TAUGATE_7:o O
*I g2655_u0:b I
*I g40_u0:b I
*CAP
1 TAUGATE_7:o 0.2110
2 n_734:1 0.3070
3 n_734:2 0.3583
4 n_734:3 0.1395
5 n_734:4 0.0646
6 n_734:5 0.0794
7 g40_u0:b 0.2161
8 n_734:6 0.2440
9 n_734:7 0.0332
10 g2655_u0:b 0.0406
*RES
2 TAUGATE_7:o n_734:1 0.1614
3 n_734:1 n_734:2 0.3312
4 n_734:2 n_734:3 0.3755
5 n_734:3 n_734:4 0.4644
6 n_734:4 n_734:5 0.4559
7 n_734:5 g40_u0:b 0.4050
8 n_734:2 n_734:6 0.2732
9 n_734:6 n_734:7 0.0073
10 n_734:7 g2655_u0:b 0.1308
*END

*D_NET TAUNET_5 1.8161
*CONN
*I i_tx_phy_hold_reg_reg_7__u0:o O
*I TAUGATE_5:a I
*CAP
1 i_tx_phy_hold_reg_reg_7__u0:o 0.2909
2 TAUNET_5:1 0.0740
3 TAUNET_5:2 0.4871
4 TAUNET_5:3 0.4951
5 TAUNET_5:4 0.4125
6 TAUGATE_5:a 0.0565
*RES
2 i_tx_phy_hold_reg_reg_7__u0:o TAUNET_5:1 0.1285
3 TAUNET_5:1 TAUNET_5:2 0.0292
4 TAUNET_5:2 TAUNET_5:3 0.2926
5 TAUNET_5:3 TAUNET_5:4 0.4507
6 TAUNET_5:4 TAUGATE_5:a 0.3356
*END

*D_NET n_427 1.9602
*CONN
*I TAUGATE_9:o O
*I i_rx_phy_one_cnt_reg_1__u0:d I
*CAP
1 TAUGATE_9:o 0.3845
2 n_427:1 0.3056
3 n_427:2 0.3464
4 n_427:3 0.0305
5 n_427:4 0.2383
6 n_427:5 0.4020
7 i_rx_phy_one_cnt_reg_1__u0:d 0.2529
*RES
2 TAUGATE_9:o n_427:1 0.2665
3 n_427:1 n_427:2 0.4354
4 n_427:2 n_427:3 0.1977
5 n_427:3 n_427:4 0.0788
6 n_427:4 n_427:5 0.3276
7 n_427:5 i_rx_phy_one_cnt_reg_1__u0:d 0.3833
*END

*D_NET TAUNET_8 0.8670
*CONN
*I g1857_u0:o O
*I TAUGATE_8:a I
*CAP
1 g1857_u0:o 0.0716
2 TAUNET_8:1 0.1922
3 TAUNET_8:2 0.2805
4 TAUNET_8:3 0.1322
5 TAUGATE_8:a 0.1905
*RES
2 g1857_u0:o TAUNET_8:1 0.4017
3 TAUNET_8:1 TAUNET_8:2 0.4680
4 TAUNET_8:2 TAUNET_8:3 0.2976
5 TAUNET_8:3 TAUGATE_8:a 0.2331
*END

*D_NET i_tx_phy_hold_reg_10 2.1383
*CONN
*I TAUGATE_5:o O
*I i_tx_phy_hold_reg_d_reg_7__u0:d I
*I g1814_u0:a I
*CAP
1 TAUGATE_5:o 0.3943
2 i_tx_phy_hold_reg_10:1 0.1955
3 i_tx_phy_hold_reg_10:2 0.1868
4 i_tx_phy_hold_reg_10:3 0.4889
5 g1814_u0:a 0.0703
6 i_tx_phy_hold_reg_10:4 0.3990
7 i_tx_phy_hold_reg_d_reg_7__u0:d 0.4035
*RES
2 TAUGATE_5:o i_tx_phy_hold_reg_10:1 0.3298
3 i_tx_phy_hold_reg_10:1 i_tx_phy_hold_reg_10:2 0.4131
4 i_tx_phy_hold_reg_10:2 i_tx_phy_hold_reg_10:3 0.3310
5 i_tx_phy_hold_reg_10:3 g1814_u0:a 0.2621
6 i_tx_phy_hold_reg_10:1 i_tx_phy_hold_reg_10:4 0.0219
7 i_tx_phy_hold_reg_10:4 i_tx_phy_hold_reg_d_reg_7__u0:d 0.0830
*END

*D_NET TAUNET_6 1.6212
*CONN
*I g1928_u0:o O
*I TAUGATE_6:a I
*CAP
1 g1928_u0:o 0.1250
2 TAUNET_6:1 0.4976
3 TAUNET_6:2 0.3591
4 TAUNET_6:3 0.2780
5 TAUNET_6:4 0.2022
6 TAUGATE_6:a 0.1593
*RES
2 g1928_u0:o TAUNET_6:1 0.4382
3 TAUNET_6:1 TAUNET_6:2 0.3498
4 TAUNET_6:2 TAUNET_6:3 0.4055
5 TAUNET_6:3 TAUNET_6:4 0.4519
6 TAUNET_6:4 TAUGATE_6:a 0.4658
*END

*D_NET n_229 1.1222
*CONN
*I TAUGATE_6:o O
*I i_rx_phy_rxd_s_reg_u0:d I
*CAP
1 TAUGATE_6:o 0.4019
2 n_229:1 0.2503
3 i_rx_phy_rxd_s_reg_u0:d 0.4700
*RES
2 TAUGATE_6:o n_229:1 0.3789
3 n_229:1 i_rx_phy_rxd_s_reg_u0:d 0.3545
*END

*D_NET TAUNET_7 1.0398
*CONN
*I g2487_u0:o O
*I TAUGATE_7:a I
*CAP
1 g2487_u0:o 0.4316
2 TAUNET_7:1 0.4734
3 TAUNET_7:2 0.0376
4 TAUGATE_7:a 0.0972
*RES
2 g2487_u0:o TAUNET_7:1 0.3594
3 TAUNET_7:1 TAUNET_7:2 0.0525
4 TAUNET_7:2 TAUGATE_7:a 0.3248
*END

*D_NET g1857_p 1.7532
*CONN
*I TAUGATE_8:o O
*I g1857_u1:a I
*CAP
1 TAUGATE_8:o 0.1267
2 g1857_p:1 0.2434
3 g1857_p:2 0.3726
4 g1857_p:3 0.2980
5 g1857_p:4 0.2454
6 g1857_u1:a 0.4670
*RES
2 TAUGATE_8:o g1857_p:1 0.1921
3 g1857_p:1 g1857_p:2 0.1376
4 g1857_p:2 g1857_p:3 0.4443
5 g1857_p:3 g1857_p:4 0.1288
6 g1857_p:4 g1857_u1:a 0.3022
*END

