*SPEF "IEEE 1481-1998"
*DESIGN "changes"
*DATE "Tue Dec 02 20:48:51 2014"
*VENDOR "TAU 2015 Contest"
*PROGRAM "Benchmark Parasitic Generator"
*VERSION "0.0"
*DESIGN_FLOW "NETLIST_TYPE_VERILOG"
*DIVIDER /
*DELIMITER :
*BUS_DELIMITER [ ]
*T_UNIT 1 PS
*C_UNIT 1 FF
*R_UNIT 1 KOHM
*L_UNIT 1 UH

*D_NET TAUNET_13 1.7439
*CONN
*I g2069_u1:o O
*I TAUGATE_13:a I
*CAP
1 g2069_u1:o 0.2611
2 TAUNET_13:1 0.4098
3 TAUNET_13:2 0.5009
4 TAUNET_13:3 0.2843
5 TAUGATE_13:a 0.2878
*RES
2 g2069_u1:o TAUNET_13:1 0.1659
3 TAUNET_13:1 TAUNET_13:2 0.2742
4 TAUNET_13:2 TAUNET_13:3 0.3494
5 TAUNET_13:3 TAUGATE_13:a 0.1485
*END

*D_NET TAUNET_12 1.3760
*CONN
*I i_rx_phy_rx_active_reg_u0:o O
*I TAUGATE_12:a I
*CAP
1 i_rx_phy_rx_active_reg_u0:o 0.2110
2 TAUNET_12:1 0.3070
3 TAUNET_12:2 0.3583
4 TAUNET_12:3 0.1395
5 TAUNET_12:4 0.0646
6 TAUNET_12:5 0.0794
7 TAUGATE_12:a 0.2161
*RES
2 i_rx_phy_rx_active_reg_u0:o TAUNET_12:1 0.1614
3 TAUNET_12:1 TAUNET_12:2 0.3312
4 TAUNET_12:2 TAUNET_12:3 0.3755
5 TAUNET_12:3 TAUNET_12:4 0.4644
6 TAUNET_12:4 TAUNET_12:5 0.4559
7 TAUNET_12:5 TAUGATE_12:a 0.4050
*END

*D_NET n_479 0.4849
*CONN
*I TAUGATE_42:o O
*I g1746_u0:a I
*CAP
1 TAUGATE_42:o 0.1670
2 n_479:1 0.2440
3 n_479:2 0.0332
4 g1746_u0:a 0.0406
*RES
2 TAUGATE_42:o n_479:1 0.2732
3 n_479:1 n_479:2 0.0073
4 n_479:2 g1746_u0:a 0.1308
*END

*D_NET n_300 1.8161
*CONN
*I TAUGATE_23:o O
*I g1806_u0:b I
*CAP
1 TAUGATE_23:o 0.2909
2 n_300:1 0.0740
3 n_300:2 0.4871
4 n_300:3 0.4951
5 n_300:4 0.4125
6 g1806_u0:b 0.0565
*RES
2 TAUGATE_23:o n_300:1 0.1285
3 n_300:1 n_300:2 0.0292
4 n_300:2 n_300:3 0.2926
5 n_300:3 n_300:4 0.4507
6 n_300:4 g1806_u0:b 0.3356
*END

*D_NET i_tx_phy_hold_reg_d_reg_5__Q 1.9602
*CONN
*I TAUGATE_50:o O
*I i_tx_phy_hold_reg_d_reg_5__u1:a I
*CAP
1 TAUGATE_50:o 0.3845
2 i_tx_phy_hold_reg_d_reg_5__Q:1 0.3056
3 i_tx_phy_hold_reg_d_reg_5__Q:2 0.3464
4 i_tx_phy_hold_reg_d_reg_5__Q:3 0.0305
5 i_tx_phy_hold_reg_d_reg_5__Q:4 0.2383
6 i_tx_phy_hold_reg_d_reg_5__Q:5 0.4020
7 i_tx_phy_hold_reg_d_reg_5__u1:a 0.2529
*RES
2 TAUGATE_50:o i_tx_phy_hold_reg_d_reg_5__Q:1 0.2665
3 i_tx_phy_hold_reg_d_reg_5__Q:1 i_tx_phy_hold_reg_d_reg_5__Q:2 0.4354
4 i_tx_phy_hold_reg_d_reg_5__Q:2 i_tx_phy_hold_reg_d_reg_5__Q:3 0.1977
5 i_tx_phy_hold_reg_d_reg_5__Q:3 i_tx_phy_hold_reg_d_reg_5__Q:4 0.0788
6 i_tx_phy_hold_reg_d_reg_5__Q:4 i_tx_phy_hold_reg_d_reg_5__Q:5 0.3276
7 i_tx_phy_hold_reg_d_reg_5__Q:5 i_tx_phy_hold_reg_d_reg_5__u1:a 0.3833
*END

*D_NET n_461 2.0296
*CONN
*I TAUGATE_57:o O
*I g2464_u0:b I
*I g2466_u0:a I
*CAP
1 TAUGATE_57:o 0.0716
2 n_461:1 0.1922
3 n_461:2 0.2805
4 n_461:3 0.1322
5 g2466_u0:a 0.1905
6 n_461:4 0.2211
7 n_461:5 0.1955
8 n_461:6 0.1868
9 n_461:7 0.4889
10 g2464_u0:b 0.0703
*RES
2 TAUGATE_57:o n_461:1 0.4017
3 n_461:1 n_461:2 0.4680
4 n_461:2 n_461:3 0.2976
5 n_461:3 g2466_u0:a 0.2331
6 n_461:2 n_461:4 0.3298
7 n_461:4 n_461:5 0.4131
8 n_461:5 n_461:6 0.3310
9 n_461:6 n_461:7 0.2621
10 n_461:7 g2464_u0:b 0.4792
*END

*D_NET n_753 6.0863
*CONN
*I TAUGATE_39:o O
*I g1734_u0:a I
*I g2413_u0:a I
*I g2504_u0:a I
*I g1733_u0:a I
*I g2415_u0:a I
*CAP
1 TAUGATE_39:o 0.0717
2 n_753:1 0.4035
3 n_753:2 0.0219
4 n_753:3 0.0830
5 n_753:4 0.4539
6 g2413_u0:a 0.1250
7 n_753:5 0.3498
8 n_753:6 0.4055
9 n_753:7 0.4519
10 n_753:8 0.4658
11 n_753:9 0.3690
12 g1734_u0:a 0.4019
13 n_753:10 0.4734
14 n_753:11 0.0376
15 g2504_u0:a 0.0972
16 n_753:12 0.3840
17 n_753:13 0.2434
18 g1733_u0:a 0.3726
19 n_753:14 0.4443
20 n_753:15 0.1288
21 g2415_u0:a 0.3022
*RES
2 TAUGATE_39:o n_753:1 0.3196
3 n_753:1 n_753:2 0.4976
4 n_753:2 n_753:3 0.3591
5 n_753:3 n_753:4 0.2780
6 n_753:4 g2413_u0:a 0.2022
7 n_753:1 n_753:5 0.0632
8 n_753:5 n_753:6 0.2503
9 n_753:6 n_753:7 0.4700
10 n_753:7 n_753:8 0.3789
11 n_753:8 n_753:9 0.3545
12 n_753:9 g1734_u0:a 0.1033
13 n_753:9 n_753:10 0.3594
14 n_753:10 n_753:11 0.0525
15 n_753:11 g2504_u0:a 0.3248
16 n_753:6 n_753:12 0.2980
17 n_753:12 n_753:13 0.2454
18 n_753:13 g1733_u0:a 0.4670
19 n_753:5 n_753:14 0.1405
20 n_753:14 n_753:15 0.0668
21 n_753:15 g2415_u0:a 0.3699
*END

*D_NET n_958 2.3423
*CONN
*I TAUGATE_54:o O
*I g31_u0:b I
*I g1867_u0:b I
*CAP
1 TAUGATE_54:o 0.4004
2 n_958:1 0.1341
3 n_958:2 0.3915
4 n_958:3 0.0282
5 n_958:4 0.3089
6 n_958:5 0.0253
7 g1867_u0:b 0.3105
8 n_958:6 0.3854
9 g31_u0:b 0.3580
*RES
2 TAUGATE_54:o n_958:1 0.1881
3 n_958:1 n_958:2 0.2034
4 n_958:2 n_958:3 0.1592
5 n_958:3 n_958:4 0.3147
6 n_958:4 n_958:5 0.2761
7 n_958:5 g1867_u0:b 0.3643
8 n_958:3 n_958:6 0.3774
9 n_958:6 g31_u0:b 0.2731
*END

*D_NET TAUNET_35 1.1096
*CONN
*I g1776_u1:o O
*I TAUGATE_35:a I
*CAP
1 g1776_u1:o 0.0518
2 TAUNET_35:1 0.2154
3 TAUNET_35:2 0.4921
4 TAUNET_35:3 0.1648
5 TAUGATE_35:a 0.1855
*RES
2 g1776_u1:o TAUNET_35:1 0.0112
3 TAUNET_35:1 TAUNET_35:2 0.3530
4 TAUNET_35:2 TAUNET_35:3 0.1128
5 TAUNET_35:3 TAUGATE_35:a 0.2239
*END

*D_NET n_487 0.9170
*CONN
*I TAUGATE_30:o O
*I i_tx_phy_hold_reg_reg_1__u0:d I
*CAP
1 TAUGATE_30:o 0.4230
2 n_487:1 0.3290
3 n_487:2 0.1620
4 i_tx_phy_hold_reg_reg_1__u0:d 0.0029
*RES
2 TAUGATE_30:o n_487:1 0.2883
3 n_487:1 n_487:2 0.1903
4 n_487:2 i_tx_phy_hold_reg_reg_1__u0:d 0.4381
*END

*D_NET n_460 0.3519
*CONN
*I TAUGATE_58:o O
*I g2506_u0:b I
*CAP
1 TAUGATE_58:o 0.0801
2 n_460:1 0.1891
3 n_460:2 0.0464
4 g2506_u0:b 0.0364
*RES
2 TAUGATE_58:o n_460:1 0.0279
3 n_460:1 n_460:2 0.4104
4 n_460:2 g2506_u0:b 0.0649
*END

*D_NET n_319 1.2069
*CONN
*I TAUGATE_41:o O
*I i_tx_phy_tx_ip_sync_reg_u0:d I
*CAP
1 TAUGATE_41:o 0.1600
2 n_319:1 0.4787
3 n_319:2 0.1076
4 i_tx_phy_tx_ip_sync_reg_u0:d 0.4606
*RES
2 TAUGATE_41:o n_319:1 0.3388
3 n_319:1 n_319:2 0.4657
4 n_319:2 i_tx_phy_tx_ip_sync_reg_u0:d 0.3595
*END

*D_NET n_486 0.4962
*CONN
*I TAUGATE_59:o O
*I i_tx_phy_hold_reg_reg_2__u0:d I
*CAP
1 TAUGATE_59:o 0.0832
2 n_486:1 0.3736
3 i_tx_phy_hold_reg_reg_2__u0:d 0.0395
*RES
2 TAUGATE_59:o n_486:1 0.3644
3 n_486:1 i_tx_phy_hold_reg_reg_2__u0:d 0.0829
*END

*D_NET TAUNET_46 2.2654
*CONN
*I g1923_u1:o O
*I TAUGATE_46:a I
*CAP
1 g1923_u1:o 0.4694
2 TAUNET_46:1 0.3882
3 TAUNET_46:2 0.4950
4 TAUNET_46:3 0.0413
5 TAUNET_46:4 0.4651
6 TAUGATE_46:a 0.4065
*RES
2 g1923_u1:o TAUNET_46:1 0.3164
3 TAUNET_46:1 TAUNET_46:2 0.3513
4 TAUNET_46:2 TAUNET_46:3 0.1165
5 TAUNET_46:3 TAUNET_46:4 0.0986
6 TAUNET_46:4 TAUGATE_46:a 0.2243
*END

*D_NET TAUNET_24 1.4701
*CONN
*I g1838_u0:o O
*I TAUGATE_24:a I
*CAP
1 g1838_u0:o 0.4269
2 TAUNET_24:1 0.2195
3 TAUNET_24:2 0.1533
4 TAUNET_24:3 0.4091
5 TAUGATE_24:a 0.2613
*RES
2 g1838_u0:o TAUNET_24:1 0.3587
3 TAUNET_24:1 TAUNET_24:2 0.1869
4 TAUNET_24:2 TAUNET_24:3 0.4974
5 TAUNET_24:3 TAUGATE_24:a 0.3047
*END

*D_NET TAUNET_16 0.7999
*CONN
*I g2172_u0:o O
*I TAUGATE_16:a I
*CAP
1 g2172_u0:o 0.4969
2 TAUNET_16:1 0.1733
3 TAUNET_16:2 0.1014
4 TAUGATE_16:a 0.0283
*RES
2 g2172_u0:o TAUNET_16:1 0.2763
3 TAUNET_16:1 TAUNET_16:2 0.2945
4 TAUNET_16:2 TAUGATE_16:a 0.3177
*END

*D_NET g2057_p 1.2585
*CONN
*I TAUGATE_21:o O
*I g2057_u1:a I
*CAP
1 TAUGATE_21:o 0.3390
2 g2057_p:1 0.3404
3 g2057_p:2 0.1317
4 g2057_p:3 0.3617
5 g2057_u1:a 0.0856
*RES
2 TAUGATE_21:o g2057_p:1 0.3629
3 g2057_p:1 g2057_p:2 0.2821
4 g2057_p:2 g2057_p:3 0.3900
5 g2057_p:3 g2057_u1:a 0.0557
*END

*D_NET TAUNET_31 1.5353
*CONN
*I i_tx_phy_tx_ip_sync_reg_u0:o O
*I TAUGATE_31:a I
*CAP
1 i_tx_phy_tx_ip_sync_reg_u0:o 0.2716
2 TAUNET_31:1 0.1079
3 TAUNET_31:2 0.3323
4 TAUNET_31:3 0.2907
5 TAUNET_31:4 0.0362
6 TAUGATE_31:a 0.4966
*RES
2 i_tx_phy_tx_ip_sync_reg_u0:o TAUNET_31:1 0.4101
3 TAUNET_31:1 TAUNET_31:2 0.2702
4 TAUNET_31:2 TAUNET_31:3 0.2135
5 TAUNET_31:3 TAUNET_31:4 0.0419
6 TAUNET_31:4 TAUGATE_31:a 0.2773
*END

*D_NET TAUNET_25 2.1160
*CONN
*I g1959_u0:o O
*I TAUGATE_25:a I
*CAP
1 g1959_u0:o 0.0485
2 TAUNET_25:1 0.4262
3 TAUNET_25:2 0.2009
4 TAUNET_25:3 0.3114
5 TAUNET_25:4 0.3090
6 TAUNET_25:5 0.3972
7 TAUGATE_25:a 0.4228
*RES
2 g1959_u0:o TAUNET_25:1 0.2443
3 TAUNET_25:1 TAUNET_25:2 0.2458
4 TAUNET_25:2 TAUNET_25:3 0.3734
5 TAUNET_25:3 TAUNET_25:4 0.1567
6 TAUNET_25:4 TAUNET_25:5 0.1247
7 TAUNET_25:5 TAUGATE_25:a 0.2439
*END

*D_NET TAUNET_27 1.4807
*CONN
*I g2639_u0:o O
*I TAUGATE_27:a I
*CAP
1 g2639_u0:o 0.4474
2 TAUNET_27:1 0.0472
3 TAUNET_27:2 0.4436
4 TAUNET_27:3 0.1981
5 TAUNET_27:4 0.3275
6 TAUGATE_27:a 0.0169
*RES
2 g2639_u0:o TAUNET_27:1 0.4026
3 TAUNET_27:1 TAUNET_27:2 0.4684
4 TAUNET_27:2 TAUNET_27:3 0.2490
5 TAUNET_27:3 TAUNET_27:4 0.0579
6 TAUNET_27:4 TAUGATE_27:a 0.0423
*END

*D_NET n_631 1.8957
*CONN
*I TAUGATE_47:o O
*I FE_RC_2_0:a I
*CAP
1 TAUGATE_47:o 0.4278
2 n_631:1 0.4796
3 n_631:2 0.3740
4 n_631:3 0.1554
5 n_631:4 0.0209
6 FE_RC_2_0:a 0.4380
*RES
2 TAUGATE_47:o n_631:1 0.4130
3 n_631:1 n_631:2 0.4990
4 n_631:2 n_631:3 0.2134
5 n_631:3 n_631:4 0.1115
6 n_631:4 FE_RC_2_0:a 0.4947
*END

*D_NET n_126 2.2597
*CONN
*I TAUGATE_38:o O
*I g1870_u0:b I
*CAP
1 TAUGATE_38:o 0.2854
2 n_126:1 0.2438
3 n_126:2 0.2969
4 n_126:3 0.3091
5 n_126:4 0.5006
6 n_126:5 0.2264
7 g1870_u0:b 0.3973
*RES
2 TAUGATE_38:o n_126:1 0.2044
3 n_126:1 n_126:2 0.1531
4 n_126:2 n_126:3 0.3886
5 n_126:3 n_126:4 0.2618
6 n_126:4 n_126:5 0.2468
7 n_126:5 g1870_u0:b 0.4002
*END

*D_NET TAUNET_28 0.7125
*CONN
*I g1914_u0:o O
*I TAUGATE_28:a I
*CAP
1 g1914_u0:o 0.1857
2 TAUNET_28:1 0.0882
3 TAUGATE_28:a 0.4386
*RES
2 g1914_u0:o TAUNET_28:1 0.2715
3 TAUNET_28:1 TAUGATE_28:a 0.0199
*END

*D_NET n_183 1.3823
*CONN
*I TAUGATE_11:o O
*I g1977_u0:a I
*I g2012_u0:b I
*CAP
1 TAUGATE_11:o 0.1459
2 n_183:1 0.1026
3 n_183:2 0.1939
4 g2012_u0:b 0.1095
5 n_183:3 0.0526
6 n_183:4 0.2388
7 n_183:5 0.1787
8 g1977_u0:a 0.3603
*RES
2 TAUGATE_11:o n_183:1 0.0212
3 n_183:1 n_183:2 0.1417
4 n_183:2 g2012_u0:b 0.2190
5 n_183:2 n_183:3 0.0603
6 n_183:3 n_183:4 0.0863
7 n_183:4 n_183:5 0.3102
8 n_183:5 g1977_u0:a 0.1239
*END

*D_NET TAUNET_57 1.6234
*CONN
*I g1733_u0:o O
*I TAUGATE_57:a I
*CAP
1 g1733_u0:o 0.0055
2 TAUNET_57:1 0.2412
3 TAUNET_57:2 0.3995
4 TAUNET_57:3 0.4441
5 TAUNET_57:4 0.4218
6 TAUNET_57:5 0.0848
7 TAUGATE_57:a 0.0266
*RES
2 g1733_u0:o TAUNET_57:1 0.0274
3 TAUNET_57:1 TAUNET_57:2 0.4218
4 TAUNET_57:2 TAUNET_57:3 0.2061
5 TAUNET_57:3 TAUNET_57:4 0.2110
6 TAUNET_57:4 TAUNET_57:5 0.4583
7 TAUNET_57:5 TAUGATE_57:a 0.3985
*END

*D_NET n_764 5.1302
*CONN
*I TAUGATE_44:o O
*I g1916_u0:b I
*I g1897_u0:a I
*I g1900_u0:b I
*I g1807_u0:b I
*I g1824_u0:a I
*I g1901_u0:a I
*CAP
1 TAUGATE_44:o 0.0725
2 n_764:1 0.3124
3 n_764:2 0.3685
4 n_764:3 0.4317
5 n_764:4 0.1801
6 n_764:5 0.2826
7 g1916_u0:b 0.3420
8 n_764:6 0.0327
9 n_764:7 0.0608
10 g1897_u0:a 0.3721
11 n_764:8 0.2502
12 g1900_u0:b 0.2506
13 n_764:9 0.2747
14 g1807_u0:b 0.1704
15 n_764:10 0.1278
16 g1824_u0:a 0.1079
17 n_764:11 0.2505
18 n_764:12 0.2036
19 n_764:13 0.3990
20 n_764:14 0.0185
21 n_764:15 0.3777
22 g1901_u0:a 0.2437
*RES
2 TAUGATE_44:o n_764:1 0.0965
3 n_764:1 n_764:2 0.2555
4 n_764:2 n_764:3 0.1304
5 n_764:3 n_764:4 0.3675
6 n_764:4 n_764:5 0.4634
7 n_764:5 g1916_u0:b 0.2869
8 n_764:2 n_764:6 0.4648
9 n_764:6 n_764:7 0.2376
10 n_764:7 g1897_u0:a 0.1146
11 n_764:2 n_764:8 0.4486
12 n_764:8 g1900_u0:b 0.0641
13 n_764:5 n_764:9 0.2303
14 n_764:9 g1807_u0:b 0.0121
15 n_764:1 n_764:10 0.3621
16 n_764:10 g1824_u0:a 0.1254
17 n_764:8 n_764:11 0.3641
18 n_764:11 n_764:12 0.1411
19 n_764:12 n_764:13 0.2452
20 n_764:13 n_764:14 0.2723
21 n_764:14 n_764:15 0.2079
22 n_764:15 g1901_u0:a 0.2449
*END

*D_NET TAUNET_37 0.1408
*CONN
*I g2063_u1:o O
*I TAUGATE_37:a I
*CAP
1 g2063_u1:o 0.0917
2 TAUNET_37:1 0.0227
3 TAUGATE_37:a 0.0264
*RES
2 g2063_u1:o TAUNET_37:1 0.0174
3 TAUNET_37:1 TAUGATE_37:a 0.1906
*END

*D_NET TAUNET_32 0.7381
*CONN
*I g2645_u0:o O
*I TAUGATE_32:a I
*CAP
1 g2645_u0:o 0.0937
2 TAUNET_32:1 0.3987
3 TAUNET_32:2 0.0209
4 TAUNET_32:3 0.1182
5 TAUGATE_32:a 0.1067
*RES
2 g2645_u0:o TAUNET_32:1 0.4881
3 TAUNET_32:1 TAUNET_32:2 0.3672
4 TAUNET_32:2 TAUNET_32:3 0.4629
5 TAUNET_32:3 TAUGATE_32:a 0.1157
*END

*D_NET g2128_p 1.8683
*CONN
*I TAUGATE_49:o O
*I g2128_u1:a I
*CAP
1 TAUGATE_49:o 0.2138
2 g2128_p:1 0.2979
3 g2128_p:2 0.3428
4 g2128_p:3 0.2325
5 g2128_p:4 0.2733
6 g2128_p:5 0.1266
7 g2128_u1:a 0.3814
*RES
2 TAUGATE_49:o g2128_p:1 0.1363
3 g2128_p:1 g2128_p:2 0.3277
4 g2128_p:2 g2128_p:3 0.3144
5 g2128_p:3 g2128_p:4 0.4503
6 g2128_p:4 g2128_p:5 0.3676
7 g2128_p:5 g2128_u1:a 0.1603
*END

*D_NET TAUNET_38 1.5235
*CONN
*I g2035_u1:o O
*I TAUGATE_38:a I
*CAP
1 g2035_u1:o 0.1159
2 TAUNET_38:1 0.1465
3 TAUNET_38:2 0.1463
4 TAUNET_38:3 0.4621
5 TAUNET_38:4 0.4065
6 TAUNET_38:5 0.0227
7 TAUGATE_38:a 0.2236
*RES
2 g2035_u1:o TAUNET_38:1 0.4114
3 TAUNET_38:1 TAUNET_38:2 0.0715
4 TAUNET_38:2 TAUNET_38:3 0.1546
5 TAUNET_38:3 TAUNET_38:4 0.1861
6 TAUNET_38:4 TAUNET_38:5 0.4367
7 TAUNET_38:5 TAUGATE_38:a 0.3452
*END

*D_NET n_948 1.4369
*CONN
*I TAUGATE_10:o O
*I g2043_u0:a I
*I g15_u0:a I
*CAP
1 TAUGATE_10:o 0.1217
2 n_948:1 0.1222
3 g2043_u0:a 0.0613
4 n_948:2 0.2603
5 n_948:3 0.2874
6 n_948:4 0.3072
7 g15_u0:a 0.2768
*RES
2 TAUGATE_10:o n_948:1 0.1692
3 n_948:1 g2043_u0:a 0.4407
4 n_948:1 n_948:2 0.1679
5 n_948:2 n_948:3 0.2053
6 n_948:3 n_948:4 0.2140
7 n_948:4 g15_u0:a 0.3306
*END

*D_NET n_116 2.0736
*CONN
*I TAUGATE_13:o O
*I g1868_u0:a I
*CAP
1 TAUGATE_13:o 0.2580
2 n_116:1 0.4796
3 n_116:2 0.3806
4 n_116:3 0.4946
5 g1868_u0:a 0.4608
*RES
2 TAUGATE_13:o n_116:1 0.4692
3 n_116:1 n_116:2 0.4766
4 n_116:2 n_116:3 0.0589
5 n_116:3 g1868_u0:a 0.0962
*END

*D_NET n_952 7.7624
*CONN
*I TAUGATE_32:o O
*I g2392_u0:b I
*I g25_u0:b I
*I g1840_u0:c I
*I g1978_u0:b I
*I g2397_u0:a I
*I g2644_u0:b I
*I g2628_u0:c I
*CAP
1 TAUGATE_32:o 0.1750
2 n_952:1 0.0845
3 n_952:2 0.1888
4 n_952:3 0.1436
5 n_952:4 0.1762
6 n_952:5 0.4748
7 g1978_u0:b 0.0806
8 n_952:6 0.4110
9 n_952:7 0.0191
10 g25_u0:b 0.3538
11 n_952:8 0.4025
12 n_952:9 0.5010
13 n_952:10 0.3538
14 g1840_u0:c 0.4649
15 n_952:11 0.3761
16 n_952:12 0.0616
17 n_952:13 0.4298
18 g2392_u0:b 0.2857
19 n_952:14 0.1284
20 n_952:15 0.0036
21 n_952:16 0.1731
22 n_952:17 0.2737
23 n_952:18 0.3095
24 g2397_u0:a 0.4895
25 n_952:19 0.4915
26 n_952:20 0.0683
27 g2644_u0:b 0.2135
28 n_952:21 0.1477
29 g2628_u0:c 0.4806
*RES
2 TAUGATE_32:o n_952:1 0.0407
3 n_952:1 n_952:2 0.2069
4 n_952:2 n_952:3 0.0491
5 n_952:3 n_952:4 0.4137
6 n_952:4 n_952:5 0.3046
7 n_952:5 g1978_u0:b 0.2987
8 n_952:3 n_952:6 0.4300
9 n_952:6 n_952:7 0.3629
10 n_952:7 g25_u0:b 0.0787
11 n_952:3 n_952:8 0.0482
12 n_952:8 n_952:9 0.1062
13 n_952:9 n_952:10 0.2963
14 n_952:10 g1840_u0:c 0.4911
15 n_952:5 n_952:11 0.2634
16 n_952:11 n_952:12 0.0470
17 n_952:12 n_952:13 0.0745
18 n_952:13 g2392_u0:b 0.1738
19 n_952:12 n_952:14 0.4033
20 n_952:14 n_952:15 0.2734
21 n_952:15 n_952:16 0.3461
22 n_952:16 n_952:17 0.3729
23 n_952:17 n_952:18 0.0418
24 n_952:18 g2397_u0:a 0.3671
25 n_952:14 n_952:19 0.4484
26 n_952:19 n_952:20 0.1379
27 n_952:20 g2644_u0:b 0.1139
28 n_952:2 n_952:21 0.3473
29 n_952:21 g2628_u0:c 0.1114
*END

*D_NET g1780_db 1.0067
*CONN
*I TAUGATE_17:o O
*I g1780_u3:b I
*CAP
1 TAUGATE_17:o 0.2366
2 g1780_db:1 0.2818
3 g1780_db:2 0.3290
4 g1780_u3:b 0.1592
*RES
2 TAUGATE_17:o g1780_db:1 0.4236
3 g1780_db:1 g1780_db:2 0.3328
4 g1780_db:2 g1780_u3:b 0.1906
*END

*D_NET n_322 1.5747
*CONN
*I TAUGATE_25:o O
*I g1840_u0:a I
*CAP
1 TAUGATE_25:o 0.4347
2 n_322:1 0.1394
3 n_322:2 0.0096
4 n_322:3 0.4963
5 n_322:4 0.2377
6 g1840_u0:a 0.2571
*RES
2 TAUGATE_25:o n_322:1 0.3610
3 n_322:1 n_322:2 0.0042
4 n_322:2 n_322:3 0.2690
5 n_322:3 n_322:4 0.3841
6 n_322:4 g1840_u0:a 0.3400
*END

*D_NET n_992 1.2277
*CONN
*I TAUGATE_45:o O
*I i_rx_phy_shift_en_reg_u0:d I
*CAP
1 TAUGATE_45:o 0.3112
2 n_992:1 0.4134
3 n_992:2 0.0741
4 i_rx_phy_shift_en_reg_u0:d 0.4290
*RES
2 TAUGATE_45:o n_992:1 0.4891
3 n_992:1 n_992:2 0.0621
4 n_992:2 i_rx_phy_shift_en_reg_u0:d 0.2122
*END

*D_NET TAUNET_40 0.7629
*CONN
*I g1884_u1:o O
*I TAUGATE_40:a I
*CAP
1 g1884_u1:o 0.1253
2 TAUNET_40:1 0.2343
3 TAUNET_40:2 0.1106
4 TAUNET_40:3 0.0283
5 TAUGATE_40:a 0.2644
*RES
2 g1884_u1:o TAUNET_40:1 0.3395
3 TAUNET_40:1 TAUNET_40:2 0.4160
4 TAUNET_40:2 TAUNET_40:3 0.1311
5 TAUNET_40:3 TAUGATE_40:a 0.1702
*END

*D_NET LineState_o_1_ 2.7314
*CONN
*I TAUGATE_18:o O
*P LineState_o_1_ O
*I g1981_u0:b I
*I g1980_u0:b I
*CAP
1 TAUGATE_18:o 0.0383
2 LineState_o_1_:1 0.2177
3 LineState_o_1_:2 0.0520
4 LineState_o_1_:3 0.1787
5 LineState_o_1_ 0.3277
6 LineState_o_1_:4 0.0500
7 LineState_o_1_:5 0.3450
8 LineState_o_1_:6 0.2552
9 LineState_o_1_:7 0.2397
10 g1981_u0:b 0.3943
11 LineState_o_1_:8 0.2910
12 g1980_u0:b 0.3418
*RES
2 TAUGATE_18:o LineState_o_1_:1 0.2308
3 LineState_o_1_:1 LineState_o_1_:2 0.1825
4 LineState_o_1_:2 LineState_o_1_:3 0.4154
5 LineState_o_1_:3 LineState_o_1_ 0.4205
6 LineState_o_1_:1 LineState_o_1_:4 0.0450
7 LineState_o_1_:4 LineState_o_1_:5 0.3586
8 LineState_o_1_:5 LineState_o_1_:6 0.1804
9 LineState_o_1_:6 LineState_o_1_:7 0.2132
10 LineState_o_1_:7 g1981_u0:b 0.3448
11 LineState_o_1_:4 LineState_o_1_:8 0.0277
12 LineState_o_1_:8 g1980_u0:b 0.2232
*END

*D_NET TAUNET_20 0.7059
*CONN
*I g2568_u0:o O
*I TAUGATE_20:a I
*CAP
1 g2568_u0:o 0.3825
2 TAUNET_20:1 0.0258
3 TAUNET_20:2 0.0722
4 TAUNET_20:3 0.0268
5 TAUNET_20:4 0.0274
6 TAUNET_20:5 0.0955
7 TAUGATE_20:a 0.0758
*RES
2 g2568_u0:o TAUNET_20:1 0.0730
3 TAUNET_20:1 TAUNET_20:2 0.2996
4 TAUNET_20:2 TAUNET_20:3 0.1500
5 TAUNET_20:3 TAUNET_20:4 0.2720
6 TAUNET_20:4 TAUNET_20:5 0.0605
7 TAUNET_20:5 TAUGATE_20:a 0.1555
*END

*D_NET n_157 1.2548
*CONN
*I TAUGATE_14:o O
*I g1845_u0:b I
*CAP
1 TAUGATE_14:o 0.2976
2 n_157:1 0.0316
3 n_157:2 0.1823
4 n_157:3 0.0755
5 n_157:4 0.3163
6 g1845_u0:b 0.3515
*RES
2 TAUGATE_14:o n_157:1 0.2983
3 n_157:1 n_157:2 0.4269
4 n_157:2 n_157:3 0.0493
5 n_157:3 n_157:4 0.0341
6 n_157:4 g1845_u0:b 0.3020
*END

*D_NET n_538 1.2913
*CONN
*I TAUGATE_36:o O
*I g1758_u0:b I
*CAP
1 TAUGATE_36:o 0.4000
2 n_538:1 0.4709
3 g1758_u0:b 0.4204
*RES
2 TAUGATE_36:o n_538:1 0.0122
3 n_538:1 g1758_u0:b 0.2688
*END

*D_NET n_416 4.2590
*CONN
*I TAUGATE_52:o O
*I g1725_u0:b I
*I g1838_u0:a I
*I g1680_u0:b I
*I g1905_u0:a I
*I g1869_u0:b I
*CAP
1 TAUGATE_52:o 0.3051
2 n_416:1 0.2956
3 n_416:2 0.2210
4 g1725_u0:b 0.0970
5 n_416:3 0.0161
6 n_416:4 0.2047
7 n_416:5 0.3729
8 n_416:6 0.0610
9 g1838_u0:a 0.4010
10 n_416:7 0.3618
11 n_416:8 0.0820
12 n_416:9 0.2174
13 n_416:10 0.3638
14 g1680_u0:b 0.4097
15 n_416:11 0.0910
16 n_416:12 0.1278
17 g1905_u0:a 0.3093
18 n_416:13 0.0712
19 n_416:14 0.0044
20 n_416:15 0.1986
21 g1869_u0:b 0.0476
*RES
2 TAUGATE_52:o n_416:1 0.2798
3 n_416:1 n_416:2 0.3150
4 n_416:2 g1725_u0:b 0.0137
5 n_416:1 n_416:3 0.2910
6 n_416:3 n_416:4 0.3768
7 n_416:4 n_416:5 0.3083
8 n_416:5 n_416:6 0.1250
9 n_416:6 g1838_u0:a 0.3526
10 n_416:5 n_416:7 0.2418
11 n_416:7 n_416:8 0.4080
12 n_416:8 n_416:9 0.3118
13 n_416:9 n_416:10 0.4981
14 n_416:10 g1680_u0:b 0.3134
15 n_416:9 n_416:11 0.3342
16 n_416:11 n_416:12 0.2150
17 n_416:12 g1905_u0:a 0.0109
18 n_416:5 n_416:13 0.0521
19 n_416:13 n_416:14 0.0546
20 n_416:14 n_416:15 0.0043
21 n_416:15 g1869_u0:b 0.2737
*END

*D_NET n_105 3.7737
*CONN
*I TAUGATE_16:o O
*I g2066_u1:b I
*I g2066_u0:a I
*I g2016_u0:b I
*CAP
1 TAUGATE_16:o 0.2677
2 n_105:1 0.1466
3 n_105:2 0.2784
4 n_105:3 0.2008
5 g2016_u0:b 0.3776
6 n_105:4 0.3567
7 n_105:5 0.3242
8 n_105:6 0.2336
9 n_105:7 0.3863
10 g2066_u0:a 0.2365
11 n_105:8 0.4791
12 n_105:9 0.2417
13 g2066_u1:b 0.2444
*RES
2 TAUGATE_16:o n_105:1 0.2937
3 n_105:1 n_105:2 0.0093
4 n_105:2 n_105:3 0.2822
5 n_105:3 g2016_u0:b 0.4311
6 n_105:1 n_105:4 0.1037
7 n_105:4 n_105:5 0.3572
8 n_105:5 n_105:6 0.2211
9 n_105:6 n_105:7 0.2185
10 n_105:7 g2066_u0:a 0.2266
11 n_105:4 n_105:8 0.4262
12 n_105:8 n_105:9 0.3737
13 n_105:9 g2066_u1:b 0.3015
*END

*D_NET TAUNET_14 1.5079
*CONN
*I g2104_u0:o O
*I TAUGATE_14:a I
*CAP
1 g2104_u0:o 0.3035
2 TAUNET_14:1 0.0863
3 TAUNET_14:2 0.2362
4 TAUNET_14:3 0.1365
5 TAUNET_14:4 0.0277
6 TAUNET_14:5 0.4263
7 TAUGATE_14:a 0.2912
*RES
2 g2104_u0:o TAUNET_14:1 0.1111
3 TAUNET_14:1 TAUNET_14:2 0.3711
4 TAUNET_14:2 TAUNET_14:3 0.0512
5 TAUNET_14:3 TAUNET_14:4 0.1351
6 TAUNET_14:4 TAUNET_14:5 0.0984
7 TAUNET_14:5 TAUGATE_14:a 0.0368
*END

*D_NET n_840 2.2447
*CONN
*I TAUGATE_20:o O
*I g2389_u0:a I
*I g39_u0:b I
*CAP
1 TAUGATE_20:o 0.1423
2 n_840:1 0.1146
3 n_840:2 0.3234
4 g39_u0:b 0.4610
5 n_840:3 0.4556
6 n_840:4 0.1835
7 n_840:5 0.0020
8 n_840:6 0.2614
9 g2389_u0:a 0.3010
*RES
2 TAUGATE_20:o n_840:1 0.4832
3 n_840:1 n_840:2 0.2776
4 n_840:2 g39_u0:b 0.3781
5 n_840:1 n_840:3 0.2164
6 n_840:3 n_840:4 0.4372
7 n_840:4 n_840:5 0.1158
8 n_840:5 n_840:6 0.1153
9 n_840:6 g2389_u0:a 0.3810
*END

*D_NET n_167 1.4651
*CONN
*I TAUGATE_26:o O
*I g1983_u0:a I
*CAP
1 TAUGATE_26:o 0.1662
2 n_167:1 0.2541
3 n_167:2 0.2497
4 n_167:3 0.4625
5 n_167:4 0.2343
6 g1983_u0:a 0.0981
*RES
2 TAUGATE_26:o n_167:1 0.3461
3 n_167:1 n_167:2 0.2382
4 n_167:2 n_167:3 0.4109
5 n_167:3 n_167:4 0.0945
6 n_167:4 g1983_u0:a 0.2326
*END

*D_NET n_306 4.4700
*CONN
*I TAUGATE_34:o O
*I g2149_u0:a I
*I g1775_u0:c I
*I g1882_u0:c I
*I g1908_u0:b I
*CAP
1 TAUGATE_34:o 0.2674
2 n_306:1 0.0414
3 n_306:2 0.2455
4 n_306:3 0.1970
5 g2149_u0:a 0.0138
6 n_306:4 0.4199
7 n_306:5 0.3736
8 n_306:6 0.3306
9 g1775_u0:c 0.3042
10 n_306:7 0.0758
11 n_306:8 0.0262
12 n_306:9 0.3812
13 n_306:10 0.0656
14 g1882_u0:c 0.1550
15 n_306:11 0.3913
16 n_306:12 0.2131
17 n_306:13 0.3201
18 n_306:14 0.0320
19 n_306:15 0.2786
20 g1908_u0:b 0.3378
*RES
2 TAUGATE_34:o n_306:1 0.4527
3 n_306:1 n_306:2 0.3131
4 n_306:2 n_306:3 0.4392
5 n_306:3 g2149_u0:a 0.4048
6 n_306:3 n_306:4 0.1317
7 n_306:4 n_306:5 0.1481
8 n_306:5 n_306:6 0.2485
9 n_306:6 g1775_u0:c 0.2201
10 n_306:4 n_306:7 0.0047
11 n_306:7 n_306:8 0.1418
12 n_306:8 n_306:9 0.2138
13 n_306:9 n_306:10 0.3805
14 n_306:10 g1882_u0:c 0.2523
15 n_306:1 n_306:11 0.4364
16 n_306:11 n_306:12 0.2454
17 n_306:12 n_306:13 0.4527
18 n_306:13 n_306:14 0.2663
19 n_306:14 n_306:15 0.3641
20 n_306:15 g1908_u0:b 0.1740
*END

*D_NET TAUNET_49 1.7738
*CONN
*I g2128_u0:o O
*I TAUGATE_49:a I
*CAP
1 g2128_u0:o 0.3351
2 TAUNET_49:1 0.3004
3 TAUNET_49:2 0.3665
4 TAUNET_49:3 0.1341
5 TAUNET_49:4 0.0859
6 TAUNET_49:5 0.1706
7 TAUGATE_49:a 0.3812
*RES
2 g2128_u0:o TAUNET_49:1 0.0751
3 TAUNET_49:1 TAUNET_49:2 0.1227
4 TAUNET_49:2 TAUNET_49:3 0.0294
5 TAUNET_49:3 TAUNET_49:4 0.0059
6 TAUNET_49:4 TAUNET_49:5 0.3552
7 TAUNET_49:5 TAUGATE_49:a 0.3839
*END

*D_NET n_796 4.2554
*CONN
*I TAUGATE_22:o O
*I g2667_u0:a I
*I g2643_u0:a I
*I g15_u0:b I
*CAP
1 TAUGATE_22:o 0.4010
2 n_796:1 0.4559
3 n_796:2 0.3575
4 n_796:3 0.1715
5 n_796:4 0.3050
6 g2643_u0:a 0.3594
7 n_796:5 0.2908
8 n_796:6 0.3318
9 n_796:7 0.3308
10 g2667_u0:a 0.4080
11 n_796:8 0.4598
12 g15_u0:b 0.3838
*RES
2 TAUGATE_22:o n_796:1 0.4902
3 n_796:1 n_796:2 0.4716
4 n_796:2 n_796:3 0.2112
5 n_796:3 n_796:4 0.1762
6 n_796:4 g2643_u0:a 0.1166
7 n_796:1 n_796:5 0.4669
8 n_796:5 n_796:6 0.1932
9 n_796:6 n_796:7 0.0675
10 n_796:7 g2667_u0:a 0.0053
11 n_796:2 n_796:8 0.2033
12 n_796:8 g15_u0:b 0.3263
*END

*D_NET n_588 1.6025
*CONN
*I TAUGATE_48:o O
*I g41_u0:a I
*CAP
1 TAUGATE_48:o 0.4683
2 n_588:1 0.4873
3 n_588:2 0.1669
4 g41_u0:a 0.4800
*RES
2 TAUGATE_48:o n_588:1 0.4518
3 n_588:1 n_588:2 0.0570
4 n_588:2 g41_u0:a 0.4909
*END

*D_NET i_tx_phy_hold_reg_d_14 1.4269
*CONN
*I TAUGATE_56:o O
*I g1973_u0:a I
*CAP
1 TAUGATE_56:o 0.5008
2 i_tx_phy_hold_reg_d_14:1 0.2457
3 i_tx_phy_hold_reg_d_14:2 0.4210
4 g1973_u0:a 0.2594
*RES
2 TAUGATE_56:o i_tx_phy_hold_reg_d_14:1 0.3565
3 i_tx_phy_hold_reg_d_14:1 i_tx_phy_hold_reg_d_14:2 0.4074
4 i_tx_phy_hold_reg_d_14:2 g1973_u0:a 0.4309
*END

*D_NET g1897_u0_o 1.6029
*CONN
*I TAUGATE_15:o O
*P g1897_u0_o O
*CAP
1 TAUGATE_15:o 0.2931
2 g1897_u0_o:1 0.2246
3 g1897_u0_o:2 0.3320
4 g1897_u0_o:3 0.3870
5 g1897_u0_o 0.3663
*RES
2 TAUGATE_15:o g1897_u0_o:1 0.1512
3 g1897_u0_o:1 g1897_u0_o:2 0.1368
4 g1897_u0_o:2 g1897_u0_o:3 0.4493
5 g1897_u0_o:3 g1897_u0_o 0.4663
*END

*D_NET TAUNET_50 1.5003
*CONN
*I i_tx_phy_hold_reg_d_reg_5__u0:o O
*I TAUGATE_50:a I
*CAP
1 i_tx_phy_hold_reg_d_reg_5__u0:o 0.1873
2 TAUNET_50:1 0.3589
3 TAUNET_50:2 0.4697
4 TAUGATE_50:a 0.4844
*RES
2 i_tx_phy_hold_reg_d_reg_5__u0:o TAUNET_50:1 0.0401
3 TAUNET_50:1 TAUNET_50:2 0.2861
4 TAUNET_50:2 TAUGATE_50:a 0.1883
*END

*D_NET TAUNET_23 1.2973
*CONN
*I g1921_u0:o O
*I TAUGATE_23:a I
*CAP
1 g1921_u0:o 0.0604
2 TAUNET_23:1 0.2921
3 TAUNET_23:2 0.4162
4 TAUNET_23:3 0.1285
5 TAUNET_23:4 0.0491
6 TAUGATE_23:a 0.3511
*RES
2 g1921_u0:o TAUNET_23:1 0.2111
3 TAUNET_23:1 TAUNET_23:2 0.3010
4 TAUNET_23:2 TAUNET_23:3 0.1515
5 TAUNET_23:3 TAUNET_23:4 0.0492
6 TAUNET_23:4 TAUGATE_23:a 0.2707
*END

*D_NET g2063_da 0.7974
*CONN
*I TAUGATE_37:o O
*I g2063_u3:a I
*CAP
1 TAUGATE_37:o 0.2365
2 g2063_da:1 0.2080
3 g2063_u3:a 0.3529
*RES
2 TAUGATE_37:o g2063_da:1 0.4886
3 g2063_da:1 g2063_u3:a 0.3648
*END

*D_NET n_237 1.5829
*CONN
*I TAUGATE_55:o O
*I g1966_u0:a I
*CAP
1 TAUGATE_55:o 0.3187
2 n_237:1 0.0224
3 n_237:2 0.4026
4 n_237:3 0.2784
5 n_237:4 0.1803
6 n_237:5 0.0882
7 g1966_u0:a 0.2924
*RES
2 TAUGATE_55:o n_237:1 0.4780
3 n_237:1 n_237:2 0.3510
4 n_237:2 n_237:3 0.1182
5 n_237:3 n_237:4 0.2614
6 n_237:4 n_237:5 0.1530
7 n_237:5 g1966_u0:a 0.2582
*END

*D_NET TAUNET_39 1.1301
*CONN
*I g2505_u0:o O
*I TAUGATE_39:a I
*CAP
1 g2505_u0:o 0.0762
2 TAUNET_39:1 0.3922
3 TAUNET_39:2 0.3950
4 TAUGATE_39:a 0.2666
*RES
2 g2505_u0:o TAUNET_39:1 0.4255
3 TAUNET_39:1 TAUNET_39:2 0.4671
4 TAUNET_39:2 TAUGATE_39:a 0.2972
*END

*D_NET TAUNET_51 2.1171
*CONN
*I g2273_u0:o O
*I TAUGATE_51:a I
*CAP
1 g2273_u0:o 0.4880
2 TAUNET_51:1 0.3167
3 TAUNET_51:2 0.3376
4 TAUNET_51:3 0.1073
5 TAUNET_51:4 0.3579
6 TAUNET_51:5 0.1300
7 TAUGATE_51:a 0.3795
*RES
2 g2273_u0:o TAUNET_51:1 0.2362
3 TAUNET_51:1 TAUNET_51:2 0.1908
4 TAUNET_51:2 TAUNET_51:3 0.1996
5 TAUNET_51:3 TAUNET_51:4 0.3123
6 TAUNET_51:4 TAUNET_51:5 0.1251
7 TAUNET_51:5 TAUGATE_51:a 0.0048
*END

*D_NET TAUNET_19 0.7154
*CONN
*I g1857_u0:o O
*I TAUGATE_19:a I
*CAP
1 g1857_u0:o 0.0195
2 TAUNET_19:1 0.3700
3 TAUGATE_19:a 0.3260
*RES
2 g1857_u0:o TAUNET_19:1 0.3466
3 TAUNET_19:1 TAUGATE_19:a 0.4948
*END

*D_NET TAUNET_34 0.7773
*CONN
*I rst_cnt_reg_2__u0:o O
*I TAUGATE_34:a I
*CAP
1 rst_cnt_reg_2__u0:o 0.1954
2 TAUNET_34:1 0.4904
3 TAUGATE_34:a 0.0915
*RES
2 rst_cnt_reg_2__u0:o TAUNET_34:1 0.4619
3 TAUNET_34:1 TAUGATE_34:a 0.1065
*END

*D_NET g1776_da 0.7741
*CONN
*I TAUGATE_35:o O
*I g1776_u3:a I
*CAP
1 TAUGATE_35:o 0.2576
2 g1776_da:1 0.2231
3 g1776_u3:a 0.2934
*RES
2 TAUGATE_35:o g1776_da:1 0.0661
3 g1776_da:1 g1776_u3:a 0.0281
*END

*D_NET TAUNET_54 0.7745
*CONN
*I g2652_u0:o O
*I TAUGATE_54:a I
*CAP
1 g2652_u0:o 0.2539
2 TAUNET_54:1 0.1980
3 TAUGATE_54:a 0.3226
*RES
2 g2652_u0:o TAUNET_54:1 0.1282
3 TAUNET_54:1 TAUGATE_54:a 0.2766
*END

*D_NET TAUNET_44 2.4916
*CONN
*I g2511_u0:o O
*I TAUGATE_44:a I
*CAP
1 g2511_u0:o 0.4267
2 TAUNET_44:1 0.3295
3 TAUNET_44:2 0.4724
4 TAUNET_44:3 0.4631
5 TAUNET_44:4 0.0407
6 TAUNET_44:5 0.4130
7 TAUGATE_44:a 0.3462
*RES
2 g2511_u0:o TAUNET_44:1 0.0714
3 TAUNET_44:1 TAUNET_44:2 0.2110
4 TAUNET_44:2 TAUNET_44:3 0.2588
5 TAUNET_44:3 TAUNET_44:4 0.0339
6 TAUNET_44:4 TAUNET_44:5 0.0519
7 TAUNET_44:5 TAUGATE_44:a 0.4874
*END

*D_NET n_945 1.1229
*CONN
*I TAUGATE_27:o O
*I g2623_u0:b I
*CAP
1 TAUGATE_27:o 0.2489
2 n_945:1 0.0346
3 n_945:2 0.4333
4 n_945:3 0.0645
5 g2623_u0:b 0.3416
*RES
2 TAUGATE_27:o n_945:1 0.4099
3 n_945:1 n_945:2 0.1540
4 n_945:2 n_945:3 0.0325
5 n_945:3 g2623_u0:b 0.0924
*END

*D_NET n_301 1.2932
*CONN
*I TAUGATE_28:o O
*I g1843_u0:c I
*CAP
1 TAUGATE_28:o 0.1516
2 n_301:1 0.4228
3 n_301:2 0.1417
4 n_301:3 0.3754
5 g1843_u0:c 0.2016
*RES
2 TAUGATE_28:o n_301:1 0.0068
3 n_301:1 n_301:2 0.2001
4 n_301:2 n_301:3 0.4220
5 n_301:3 g1843_u0:c 0.4926
*END

*D_NET TAUNET_43 1.4952
*CONN
*I g2477_u0:o O
*I TAUGATE_43:a I
*CAP
1 g2477_u0:o 0.3810
2 TAUNET_43:1 0.2042
3 TAUNET_43:2 0.2030
4 TAUNET_43:3 0.2656
5 TAUGATE_43:a 0.4413
*RES
2 g2477_u0:o TAUNET_43:1 0.1336
3 TAUNET_43:1 TAUNET_43:2 0.4042
4 TAUNET_43:2 TAUNET_43:3 0.0451
5 TAUNET_43:3 TAUGATE_43:a 0.2391
*END

*D_NET TAUNET_56 0.9045
*CONN
*I i_tx_phy_hold_reg_d_reg_4__u0:o O
*I TAUGATE_56:a I
*CAP
1 i_tx_phy_hold_reg_d_reg_4__u0:o 0.4146
2 TAUNET_56:1 0.2654
3 TAUGATE_56:a 0.2245
*RES
2 i_tx_phy_hold_reg_d_reg_4__u0:o TAUNET_56:1 0.4797
3 TAUNET_56:1 TAUGATE_56:a 0.0551
*END

*D_NET TAUNET_55 1.5272
*CONN
*I g2060_u0:o O
*I TAUGATE_55:a I
*CAP
1 g2060_u0:o 0.0973
2 TAUNET_55:1 0.1903
3 TAUNET_55:2 0.2143
4 TAUNET_55:3 0.0701
5 TAUNET_55:4 0.2421
6 TAUNET_55:5 0.4634
7 TAUGATE_55:a 0.2497
*RES
2 g2060_u0:o TAUNET_55:1 0.2766
3 TAUNET_55:1 TAUNET_55:2 0.3086
4 TAUNET_55:2 TAUNET_55:3 0.2353
5 TAUNET_55:3 TAUNET_55:4 0.4838
6 TAUNET_55:4 TAUNET_55:5 0.0722
7 TAUNET_55:5 TAUGATE_55:a 0.3539
*END

*D_NET TAUNET_11 1.2346
*CONN
*I g2091_u1:o O
*I TAUGATE_11:a I
*CAP
1 g2091_u1:o 0.0192
2 TAUNET_11:1 0.4054
3 TAUNET_11:2 0.3681
4 TAUGATE_11:a 0.4419
*RES
2 g2091_u1:o TAUNET_11:1 0.1561
3 TAUNET_11:1 TAUNET_11:2 0.1347
4 TAUNET_11:2 TAUGATE_11:a 0.0224
*END

*D_NET TAUNET_33 1.9103
*CONN
*I g2067_u1:o O
*I TAUGATE_33:a I
*CAP
1 g2067_u1:o 0.2244
2 TAUNET_33:1 0.1374
3 TAUNET_33:2 0.1713
4 TAUNET_33:3 0.2153
5 TAUNET_33:4 0.3119
6 TAUNET_33:5 0.4918
7 TAUGATE_33:a 0.3583
*RES
2 g2067_u1:o TAUNET_33:1 0.0251
3 TAUNET_33:1 TAUNET_33:2 0.0071
4 TAUNET_33:2 TAUNET_33:3 0.2242
5 TAUNET_33:3 TAUNET_33:4 0.4834
6 TAUNET_33:4 TAUNET_33:5 0.4589
7 TAUNET_33:5 TAUGATE_33:a 0.0098
*END

*D_NET TAUNET_22 2.1429
*CONN
*I i_rx_phy_fs_state_reg_1__u0:o O
*I TAUGATE_22:a I
*CAP
1 i_rx_phy_fs_state_reg_1__u0:o 0.2846
2 TAUNET_22:1 0.1185
3 TAUNET_22:2 0.4585
4 TAUNET_22:3 0.3703
5 TAUNET_22:4 0.0365
6 TAUNET_22:5 0.4409
7 TAUGATE_22:a 0.4335
*RES
2 i_rx_phy_fs_state_reg_1__u0:o TAUNET_22:1 0.3158
3 TAUNET_22:1 TAUNET_22:2 0.2513
4 TAUNET_22:2 TAUNET_22:3 0.4798
5 TAUNET_22:3 TAUNET_22:4 0.1640
6 TAUNET_22:4 TAUNET_22:5 0.1778
7 TAUNET_22:5 TAUGATE_22:a 0.3155
*END

*D_NET TAUNET_41 1.3545
*CONN
*I g1962_u0:o O
*I TAUGATE_41:a I
*CAP
1 g1962_u0:o 0.2285
2 TAUNET_41:1 0.4514
3 TAUNET_41:2 0.1489
4 TAUNET_41:3 0.3442
5 TAUGATE_41:a 0.1815
*RES
2 g1962_u0:o TAUNET_41:1 0.2112
3 TAUNET_41:1 TAUNET_41:2 0.3238
4 TAUNET_41:2 TAUNET_41:3 0.1536
5 TAUNET_41:3 TAUGATE_41:a 0.2744
*END

*D_NET TAUNET_30 0.2935
*CONN
*I g1738_u1:o O
*I TAUGATE_30:a I
*CAP
1 g1738_u1:o 0.0682