*SPEF "IEEE 1481-1998"
*DESIGN "usb_phy_ispd"
*DATE "Tue Nov 25 17:22:04 2014"
*VENDOR "TAU 2015 Contest"
*PROGRAM "Benchmark Parasitic Generator"
*VERSION "0.0"
*DESIGN_FLOW "NETLIST_TYPE_VERILOG"
*DIVIDER /
*DELIMITER :
*BUS_DELIMITER [ ]
*T_UNIT 1 PS
*C_UNIT 1 FF
*R_UNIT 1 KOHM
*L_UNIT 1 UH

*D_NET newNet_120 2.6256
*CONN
*I newInst_120:o O
*I i_tx_phy_hold_reg_d_reg_1__u0:ck I
*I newInst_288:a I
*CAP
1 newInst_120:o 0.2000
2 newNet_120:1 0.3792
3 newNet_120:2 0.3945
4 newNet_120:3 0.1168
5 newNet_120:4 0.0632
6 newNet_120:5 0.3389
7 newInst_288:a 0.2267
8 newNet_120:6 0.2162
9 newNet_120:7 0.3480
10 i_tx_phy_hold_reg_d_reg_1__u0:ck 0.3423
*RES
2 newInst_120:o newNet_120:1 0.0022
3 newNet_120:1 newNet_120:2 0.3986
4 newNet_120:2 newNet_120:3 0.0342
5 newNet_120:3 newNet_120:4 0.1492
6 newNet_120:4 newNet_120:5 0.1342
7 newNet_120:5 newInst_288:a 0.2299
8 newNet_120:1 newNet_120:6 0.3091
9 newNet_120:6 newNet_120:7 0.3077
10 newNet_120:7 i_tx_phy_hold_reg_d_reg_1__u0:ck 0.0259
*END

*D_NET newNet_199 1.1957
*CONN
*I newInst_199:o O
*I newInst_200:a I
*CAP
1 newInst_199:o 0.2326
2 newNet_199:1 0.2277
3 newNet_199:2 0.1399
4 newNet_199:3 0.3067
5 newNet_199:4 0.2194
6 newInst_200:a 0.0694
*RES
2 newInst_199:o newNet_199:1 0.1731
3 newNet_199:1 newNet_199:2 0.0340
4 newNet_199:2 newNet_199:3 0.1910
5 newNet_199:3 newNet_199:4 0.0233
6 newNet_199:4 newInst_200:a 0.1519
*END

*D_NET n_707 1.0667
*CONN
*I g2464_u0:o O
*I g2463_u0:a I
*CAP
1 n_707:0 0.0150
2 n_707:1 0.5143
3 n_707:3 0.5122
4 n_707:4 0.0128
5 n_707:5 0.0062
6 g2463_u0:a 0.0062
*RES
2 n_707:5 g2463_u0:a 0.0010
3 n_707:4 n_707:5 0.0100
4 n_707:3 n_707:4 0.0020
5 n_707:1 n_707:3 0.0695
6 n_707:0 g2464_u0:o 0.0100
7 n_707:0 n_707:1 0.0020
*END

*D_NET newNet_235 0.9516
*CONN
*I newInst_235:o O
*I newInst_236:a I
*CAP
1 newInst_235:o 0.0178
2 newNet_235:1 0.3230
3 newNet_235:2 0.3040
4 newInst_236:a 0.3068
*RES
2 newInst_235:o newNet_235:1 0.1313
3 newNet_235:1 newNet_235:2 0.0490
4 newNet_235:2 newInst_236:a 0.1490
*END

*D_NET newNet_110 1.4778
*CONN
*I newInst_110:o O
*I newInst_111:a I
*CAP
1 newInst_110:o 0.0586
2 newNet_110:1 0.4766
3 newNet_110:2 0.4662
4 newNet_110:3 0.1239
5 newInst_111:a 0.3524
*RES
2 newInst_110:o newNet_110:1 0.4065
3 newNet_110:1 newNet_110:2 0.3838
4 newNet_110:2 newNet_110:3 0.2328
5 newNet_110:3 newInst_111:a 0.0616
*END

*D_NET n_479 0.3134
*CONN
*I g1747_u0:o O
*I g1746_u0:a I
*CAP
1 n_479:0 0.0128
2 n_479:1 0.0062
3 n_479:2 0.0256
4 g1746_u0:a 0.0062
5 n_479:4 0.0128
6 n_479:5 0.0897
7 n_479:6 0.0897
8 n_479:7 0.0352
9 n_479:8 0.0352
*RES
2 n_479:8 g1747_u0:o 0.0100
3 n_479:7 n_479:8 0.0055
4 n_479:6 n_479:7 0.0100
5 n_479:5 n_479:6 0.0140
6 n_479:4 n_479:5 0.0100
7 n_479:2 n_479:4 0.0020
8 n_479:1 g1746_u0:a 0.0010
9 n_479:0 n_479:2 0.0020
10 n_479:0 n_479:1 0.0100
*END

*D_NET g1778_db 0.3744
*CONN
*I g1778_u2:o O
*I g1778_u3:b I
*CAP
1 g1778_db:0 0.0250
2 g1778_db:1 0.0062
3 g1778_db:2 0.1498
4 g1778_u2:o 0.0062
5 g1778_db:4 0.1498
6 g1778_db:5 0.0250
7 g1778_db:6 0.0062
8 g1778_u3:b 0.0062
*RES
2 g1778_db:6 g1778_u3:b 0.0010
3 g1778_db:5 g1778_db:6 0.0100
4 g1778_db:4 g1778_db:5 0.0040
5 g1778_db:2 g1778_db:4 0.0200
6 g1778_db:1 g1778_u2:o 0.0010
7 g1778_db:0 g1778_db:2 0.0040
8 g1778_db:0 g1778_db:1 0.0100
*END

*D_NET newNet_10 1.1883
*CONN
*I newInst_10:o O
*I rst_cnt_reg_2__u0:ck I
*CAP
1 newInst_10:o 0.1542
2 newNet_10:1 0.2415
3 newNet_10:2 0.4946
4 rst_cnt_reg_2__u0:ck 0.2980
*RES
2 newInst_10:o newNet_10:1 0.1661
3 newNet_10:1 newNet_10:2 0.4120
4 newNet_10:2 rst_cnt_reg_2__u0:ck 0.1627
*END

*D_NET n_990 1.3860
*CONN
*I g2672_u0:o O
*I g2671_u0:a I
*CAP
1 n_990:0 0.0256
2 n_990:1 0.0062
3 n_990:2 0.6868
4 g2671_u0:a 0.0062
5 n_990:4 0.6612
*RES
2 n_990:4 g2672_u0:o 0.0100
3 n_990:2 n_990:4 0.1020
4 n_990:1 g2671_u0:a 0.0010
5 n_990:0 n_990:2 0.0040
6 n_990:0 n_990:1 0.0100
*END

*D_NET n_960 0.9025
*CONN
*I g34_u0:o O
*I g2650_u0:c I
*CAP
1 n_960:0 0.0138
2 n_960:1 0.0062
3 n_960:2 0.0277
4 g34_u0:o 0.0062
5 n_960:4 0.0138
6 n_960:5 0.1268
7 n_960:6 0.1268
8 n_960:7 0.2719
9 n_960:8 0.2844
10 n_960:9 0.0125
11 n_960:10 0.0062
12 g2650_u0:c 0.0062
*RES
2 n_960:10 g2650_u0:c 0.0010
3 n_960:9 n_960:10 0.0100
4 n_960:8 n_960:9 0.0020
5 n_960:7 n_960:8 0.0405
6 n_960:6 n_960:7 0.0100
7 n_960:5 n_960:6 0.0200
8 n_960:4 n_960:5 0.0100
9 n_960:2 n_960:4 0.0020
10 n_960:1 g34_u0:o 0.0010
11 n_960:0 n_960:2 0.0020
12 n_960:0 n_960:1 0.0100
*END

*D_NET i_tx_phy_bit_cnt_2_ 4.1275
*CONN
*I i_tx_phy_bit_cnt_reg_2__u0:o O
*I g1856_u0:c I
*I g1877_u0:c I
*I g1921_u0:b I
*I g1936_u0:c I
*I g1973_u0:c I
*I g1982_u0:c I
*I g2194_u0:a I
*CAP
1 i_tx_phy_bit_cnt_2_:0 0.0138
2 i_tx_phy_bit_cnt_2_:1 0.0062
3 i_tx_phy_bit_cnt_2_:2 0.0173
4 g1856_u0:c 0.0062
5 i_tx_phy_bit_cnt_2_:4 0.0035
6 i_tx_phy_bit_cnt_2_:5 0.4101
7 i_tx_phy_bit_cnt_2_:6 0.1153
8 i_tx_phy_bit_cnt_2_:7 0.3845
9 i_tx_phy_bit_cnt_2_:8 0.0831
10 i_tx_phy_bit_cnt_2_:9 0.0831
11 i_tx_phy_bit_cnt_2_:10 0.0897
12 i_tx_phy_bit_cnt_2_:11 0.2112
13 i_tx_phy_bit_cnt_2_:12 0.0831
14 i_tx_phy_bit_cnt_2_:13 0.0312
15 i_tx_phy_bit_cnt_2_:14 0.2770
16 i_tx_phy_bit_cnt_2_:15 0.2691
17 i_tx_phy_bit_cnt_2_:17 0.0450
18 i_tx_phy_bit_cnt_2_:18 0.0062
19 i_tx_phy_bit_cnt_2_:19 0.1489
20 i_tx_phy_bit_cnt_2_:20 0.4101
21 i_tx_phy_bit_cnt_2_:21 0.0138
22 g2194_u0:a 0.0062
23 i_tx_phy_bit_cnt_2_:23 0.2050
24 i_tx_phy_bit_cnt_2_:24 0.1410
25 i_tx_phy_bit_cnt_2_:25 0.0415
26 i_tx_phy_bit_cnt_2_:26 0.0062
27 i_tx_phy_bit_cnt_2_:27 0.1410
28 i_tx_phy_bit_cnt_2_:28 0.0641
29 i_tx_phy_bit_cnt_2_:29 0.1835
30 i_tx_phy_bit_cnt_2_:30 0.0554
31 g1936_u0:c 0.0062
32 i_tx_phy_bit_cnt_2_:32 0.0156
33 i_tx_phy_bit_cnt_2_:33 0.0415
34 i_tx_phy_bit_cnt_2_:34 0.2112
35 i_tx_phy_bit_cnt_2_:35 0.0138
36 i_tx_phy_bit_cnt_2_:36 0.0294
37 i_tx_phy_bit_cnt_2_:37 0.1040
38 i_tx_phy_bit_cnt_2_:38 0.0277
39 i_tx_phy_bit_cnt_2_:39 0.0062
40 i_tx_phy_bit_cnt_2_:40 0.0138
41 i_tx_phy_bit_cnt_2_:41 0.0624
42 i_tx_phy_bit_cnt_2_:42 0.0062
43 g1921_u0:b 0.0062
44 i_tx_phy_bit_cnt_2_:44 0.0062
45 i_tx_phy_bit_cnt_2_:45 0.0062
46 g1982_u0:c 0.0062
47 g1973_u0:c 0.0062
48 g1877_u0:c 0.0062
*RES
2 i_tx_phy_bit_cnt_2_:45 g1877_u0:c 0.0010
3 i_tx_phy_bit_cnt_2_:44 g1973_u0:c 0.0010
4 i_tx_phy_bit_cnt_2_:42 g1982_u0:c 0.0010
5 i_tx_phy_bit_cnt_2_:41 i_tx_phy_bit_cnt_2_:45 0.0100
6 i_tx_phy_bit_cnt_2_:40 i_tx_phy_bit_cnt_2_:44 0.0100
7 i_tx_phy_bit_cnt_2_:39 g1921_u0:b 0.0010
8 i_tx_phy_bit_cnt_2_:38 i_tx_phy_bit_cnt_2_:42 0.0100
9 i_tx_phy_bit_cnt_2_:37 i_tx_phy_bit_cnt_2_:41 0.0100
10 i_tx_phy_bit_cnt_2_:36 i_tx_phy_bit_cnt_2_:40 0.0020
11 i_tx_phy_bit_cnt_2_:35 i_tx_phy_bit_cnt_2_:39 0.0100
12 i_tx_phy_bit_cnt_2_:34 i_tx_phy_bit_cnt_2_:38 0.0040
13 i_tx_phy_bit_cnt_2_:33 i_tx_phy_bit_cnt_2_:37 0.0060
14 i_tx_phy_bit_cnt_2_:32 i_tx_phy_bit_cnt_2_:36 0.0022
15 i_tx_phy_bit_cnt_2_:30 i_tx_phy_bit_cnt_2_:35 0.0020
16 i_tx_phy_bit_cnt_2_:29 i_tx_phy_bit_cnt_2_:34 0.0265
17 i_tx_phy_bit_cnt_2_:28 i_tx_phy_bit_cnt_2_:33 0.0100
18 i_tx_phy_bit_cnt_2_:27 i_tx_phy_bit_cnt_2_:32 0.0100
19 i_tx_phy_bit_cnt_2_:26 g1936_u0:c 0.0010
20 i_tx_phy_bit_cnt_2_:25 i_tx_phy_bit_cnt_2_:30 0.0060
21 i_tx_phy_bit_cnt_2_:24 i_tx_phy_bit_cnt_2_:29 0.0100
22 i_tx_phy_bit_cnt_2_:23 i_tx_phy_bit_cnt_2_:28 0.0100
23 i_tx_phy_bit_cnt_2_:23 i_tx_phy_bit_cnt_2_:27 0.0220
24 i_tx_phy_bit_cnt_2_:21 i_tx_phy_bit_cnt_2_:26 0.0100
25 i_tx_phy_bit_cnt_2_:20 i_tx_phy_bit_cnt_2_:25 0.0100
26 i_tx_phy_bit_cnt_2_:20 i_tx_phy_bit_cnt_2_:24 0.0220
27 i_tx_phy_bit_cnt_2_:19 i_tx_phy_bit_cnt_2_:23 0.0100
28 i_tx_phy_bit_cnt_2_:18 g2194_u0:a 0.0010
29 i_tx_phy_bit_cnt_2_:17 i_tx_phy_bit_cnt_2_:21 0.0020
30 i_tx_phy_bit_cnt_2_:15 i_tx_phy_bit_cnt_2_:20 0.0420
31 i_tx_phy_bit_cnt_2_:14 i_tx_phy_bit_cnt_2_:19 0.0215
32 i_tx_phy_bit_cnt_2_:14 i_tx_phy_bit_cnt_2_:18 0.0100
33 i_tx_phy_bit_cnt_2_:13 i_tx_phy_bit_cnt_2_:17 0.0045
34 i_tx_phy_bit_cnt_2_:12 i_tx_phy_bit_cnt_reg_2__u0:o 0.0100
35 i_tx_phy_bit_cnt_2_:11 i_tx_phy_bit_cnt_2_:15 0.0100
36 i_tx_phy_bit_cnt_2_:11 i_tx_phy_bit_cnt_2_:14 0.0185
37 i_tx_phy_bit_cnt_2_:10 i_tx_phy_bit_cnt_2_:13 0.0100
38 i_tx_phy_bit_cnt_2_:9 i_tx_phy_bit_cnt_2_:12 0.0120
39 i_tx_phy_bit_cnt_2_:8 i_tx_phy_bit_cnt_2_:11 0.0120
40 i_tx_phy_bit_cnt_2_:7 i_tx_phy_bit_cnt_2_:10 0.0140
41 i_tx_phy_bit_cnt_2_:7 i_tx_phy_bit_cnt_2_:9 0.0100
42 i_tx_phy_bit_cnt_2_:6 i_tx_phy_bit_cnt_2_:8 0.0100
43 i_tx_phy_bit_cnt_2_:5 i_tx_phy_bit_cnt_2_:7 0.0460
44 i_tx_phy_bit_cnt_2_:5 i_tx_phy_bit_cnt_2_:6 0.0180
45 i_tx_phy_bit_cnt_2_:4 i_tx_phy_bit_cnt_2_:5 0.0100
46 i_tx_phy_bit_cnt_2_:2 i_tx_phy_bit_cnt_2_:4 0.0005
47 i_tx_phy_bit_cnt_2_:1 g1856_u0:c 0.0010
48 i_tx_phy_bit_cnt_2_:0 i_tx_phy_bit_cnt_2_:2 0.0020
49 i_tx_phy_bit_cnt_2_:0 i_tx_phy_bit_cnt_2_:1 0.0100
*END

*D_NET newNet_166 1.1896
*CONN
*I newInst_166:o O
*I i_rx_phy_se0_s_reg_u0:ck I
*CAP
1 newInst_166:o 0.3748
2 newNet_166:1 0.1204
3 newNet_166:2 0.0927
4 newNet_166:3 0.1679
5 newNet_166:4 0.0593
6 i_rx_phy_se0_s_reg_u0:ck 0.3745
*RES
2 newInst_166:o newNet_166:1 0.1708
3 newNet_166:1 newNet_166:2 0.0756
4 newNet_166:2 newNet_166:3 0.2634
5 newNet_166:3 newNet_166:4 0.4707
6 newNet_166:4 i_rx_phy_se0_s_reg_u0:ck 0.4356
*END

*D_NET newNet_130 0.1862
*CONN
*I newInst_130:o O
*I newInst_131:a I
*CAP
1 newInst_130:o 0.1724
2 newNet_130:1 0.0020
3 newInst_131:a 0.0117
*RES
2 newInst_130:o newNet_130:1 0.2437
3 newNet_130:1 newInst_131:a 0.2268
*END

*D_NET n_959 0.7363
*CONN
*I g31_u0:o O
*I g2650_u0:b I
*CAP
1 n_959:0 0.0277
2 n_959:1 0.0062
3 n_959:2 0.3308
4 g31_u0:o 0.0062
5 n_959:4 0.3280
6 n_959:5 0.0250
7 n_959:6 0.0062
8 g2650_u0:b 0.0062
*RES
2 n_959:6 g2650_u0:b 0.0010
3 n_959:5 n_959:6 0.0100
4 n_959:4 n_959:5 0.0040
5 n_959:2 n_959:4 0.0450
6 n_959:1 g31_u0:o 0.0010
7 n_959:0 n_959:2 0.0040
8 n_959:0 n_959:1 0.0100
*END

*D_NET n_980 4.5810
*CONN
*I g2669_u0:o O
*I g11_u0:a I
*I g2227_u0:a I
*I g2459_u0:b I
*I g2640_u0:a I
*I g2668_u0:a I
*CAP
1 n_980:0 0.0150
2 n_980:1 0.0062
3 n_980:2 0.0187
4 g2669_u0:o 0.0062
5 n_980:4 0.0037
6 n_980:5 0.3117
7 n_980:6 0.6363
8 n_980:7 0.3246
9 n_980:8 0.6599
10 n_980:9 0.1812
11 n_980:10 1.0798
12 n_980:11 0.0462
13 n_980:12 0.1350
14 n_980:13 0.0750
15 n_980:14 0.3449
16 n_980:15 0.0062
17 n_980:16 0.0062
18 n_980:17 0.0062
19 n_980:18 0.0909
20 g2227_u0:a 0.0062
21 g2459_u0:b 0.0062
22 g2668_u0:a 0.0062
23 n_980:22 0.1948
24 n_980:23 0.1039
25 n_980:24 0.1050
26 n_980:25 0.0075
27 n_980:26 0.1350
28 n_980:27 0.0075
29 n_980:28 0.0300
30 n_980:29 0.0062
31 n_980:30 0.0062
32 g11_u0:a 0.0062
33 g2640_u0:a 0.0062
*RES
2 n_980:30 g2640_u0:a 0.0010
3 n_980:29 g11_u0:a 0.0010
4 n_980:28 n_980:30 0.0100
5 n_980:27 n_980:29 0.0100
6 n_980:26 n_980:28 0.0040
7 n_980:25 n_980:27 0.0010
8 n_980:24 n_980:26 0.0140
9 n_980:23 n_980:25 0.0100
10 n_980:22 n_980:24 0.0100
11 n_980:22 n_980:23 0.0160
12 n_980:18 n_980:22 0.0140
13 n_980:17 g2668_u0:a 0.0010
14 n_980:16 g2459_u0:b 0.0010
15 n_980:15 g2227_u0:a 0.0010
16 n_980:14 n_980:18 0.0100
17 n_980:13 n_980:17 0.0100
18 n_980:12 n_980:16 0.0100
19 n_980:11 n_980:15 0.0100
20 n_980:10 n_980:14 0.0460
21 n_980:10 n_980:13 0.0100
22 n_980:9 n_980:12 0.0180
23 n_980:9 n_980:11 0.0070
24 n_980:8 n_980:10 0.0880
25 n_980:7 n_980:9 0.0100
26 n_980:6 n_980:8 0.0100
27 n_980:6 n_980:7 0.0500
28 n_980:5 n_980:6 0.0480
29 n_980:4 n_980:5 0.0100
30 n_980:2 n_980:4 0.0005
31 n_980:1 g2669_u0:o 0.0010
32 n_980:0 n_980:2 0.0020
33 n_980:0 n_980:1 0.0100
*END

*D_NET newNet_24 3.5570
*CONN
*I newInst_24:o O
*I newInst_25:a I
*I newInst_48:a I
*I newInst_214:a I
*CAP
1 newInst_24:o 0.0296
2 newNet_24:1 0.1876
3 newNet_24:2 0.0595
4 newNet_24:3 0.2550
5 newInst_48:a 0.4579
6 newNet_24:4 0.3670
7 newNet_24:5 0.0788
8 newNet_24:6 0.0125
9 newNet_24:7 0.4083
10 newInst_25:a 0.2037
11 newNet_24:8 0.3686
12 newNet_24:9 0.1667
13 newNet_24:10 0.4317
14 newNet_24:11 0.1120
15 newNet_24:12 0.0039
16 newInst_214:a 0.4142
*RES
2 newInst_24:o newNet_24:1 0.3006
3 newNet_24:1 newNet_24:2 0.2535
4 newNet_24:2 newNet_24:3 0.2194
5 newNet_24:3 newInst_48:a 0.1135
6 newNet_24:3 newNet_24:4 0.1594
7 newNet_24:4 newNet_24:5 0.3957
8 newNet_24:5 newNet_24:6 0.3077
9 newNet_24:6 newNet_24:7 0.4522
10 newNet_24:7 newInst_25:a 0.3100
11 newNet_24:3 newNet_24:8 0.1371
12 newNet_24:8 newNet_24:9 0.2330
13 newNet_24:9 newNet_24:10 0.4566
14 newNet_24:10 newNet_24:11 0.2890
15 newNet_24:11 newNet_24:12 0.4585
16 newNet_24:12 newInst_214:a 0.4359
*END

*D_NET i_tx_phy_sd_raw_o 1.5726
*CONN
*I i_tx_phy_sd_raw_o_reg_u0:o O
*I g1927_u0:b I
*I g1955_u0:b I
*CAP
1 i_tx_phy_sd_raw_o:0 0.0130
2 i_tx_phy_sd_raw_o:1 0.0062
3 i_tx_phy_sd_raw_o:2 0.0325
4 g1955_u0:b 0.0062
5 i_tx_phy_sd_raw_o:4 0.0195
6 i_tx_phy_sd_raw_o:5 0.3764
7 i_tx_phy_sd_raw_o:6 0.6583
8 i_tx_phy_sd_raw_o:7 0.2819
9 i_tx_phy_sd_raw_o:8 0.0035
10 i_tx_phy_sd_raw_o:9 0.0658
11 i_tx_phy_sd_raw_o:10 0.0173
12 i_tx_phy_sd_raw_o:11 0.0658
13 i_tx_phy_sd_raw_o:12 0.0138
14 i_tx_phy_sd_raw_o:14 0.0062
15 g1927_u0:b 0.0062
*RES
2 i_tx_phy_sd_raw_o:14 g1927_u0:b 0.0010
3 i_tx_phy_sd_raw_o:12 i_tx_phy_sd_raw_o:14 0.0100
4 i_tx_phy_sd_raw_o:11 i_tx_phy_sd_raw_o_reg_u0:o 0.0100
5 i_tx_phy_sd_raw_o:10 i_tx_phy_sd_raw_o:12 0.0020
6 i_tx_phy_sd_raw_o:9 i_tx_phy_sd_raw_o:11 0.0095
7 i_tx_phy_sd_raw_o:8 i_tx_phy_sd_raw_o:10 0.0005
8 i_tx_phy_sd_raw_o:7 i_tx_phy_sd_raw_o:9 0.0100
9 i_tx_phy_sd_raw_o:6 i_tx_phy_sd_raw_o:8 0.0100
10 i_tx_phy_sd_raw_o:6 i_tx_phy_sd_raw_o:7 0.0440
11 i_tx_phy_sd_raw_o:5 i_tx_phy_sd_raw_o:6 0.0600
12 i_tx_phy_sd_raw_o:4 i_tx_phy_sd_raw_o:5 0.0100
13 i_tx_phy_sd_raw_o:2 i_tx_phy_sd_raw_o:4 0.0030
14 i_tx_phy_sd_raw_o:1 g1955_u0:b 0.0010
15 i_tx_phy_sd_raw_o:0 i_tx_phy_sd_raw_o:2 0.0020
16 i_tx_phy_sd_raw_o:0 i_tx_phy_sd_raw_o:1 0.0100
*END

*D_NET n_297 0.8502
*CONN
*I g1927_u0:o O
*I g1876_u0:b I
*CAP
1 n_297:0 0.0138
2 n_297:1 0.3912
3 n_297:3 0.4051
4 n_297:4 0.0277
5 n_297:5 0.0062
6 g1876_u0:b 0.0062
*RES
2 n_297:5 g1876_u0:b 0.0010
3 n_297:4 n_297:5 0.0100
4 n_297:3 n_297:4 0.0040
5 n_297:1 n_297:3 0.0545
6 n_297:0 g1927_u0:o 0.0100
7 n_297:0 n_297:1 0.0020
*END

*D_NET newNet_79 1.6612
*CONN
*I newInst_79:o O
*I newInst_80:a I
*CAP
1 newInst_79:o 0.0271
2 newNet_79:1 0.2373
3 newNet_79:2 0.2851
4 newNet_79:3 0.3818
5 newNet_79:4 0.3784
6 newNet_79:5 0.1957
7 newInst_80:a 0.1559
*RES
2 newInst_79:o newNet_79:1 0.2317
3 newNet_79:1 newNet_79:2 0.0834
4 newNet_79:2 newNet_79:3 0.1100
5 newNet_79:3 newNet_79:4 0.0458
6 newNet_79:4 newNet_79:5 0.1110
7 newNet_79:5 newInst_80:a 0.0326
*END

*D_NET n_192 0.9549
*CONN
*I g2116_u1:o O
*I g1973_u0:b I
*I g1983_u0:b I
*CAP
1 n_192:0 0.0138
2 n_192:1 0.0062
3 n_192:2 0.0277
4 g2116_u1:o 0.0062
5 n_192:4 0.0138
6 n_192:5 0.2435
7 n_192:6 0.3845
8 n_192:7 0.1410
9 n_192:8 0.0294
10 n_192:9 0.0035
11 n_192:10 0.0294
12 n_192:11 0.0173
13 n_192:12 0.0062
14 n_192:13 0.0138
15 g1973_u0:b 0.0062
16 n_192:15 0.0062
17 g1983_u0:b 0.0062
*RES
2 n_192:15 g1983_u0:b 0.0010
3 n_192:13 n_192:15 0.0100
4 n_192:12 g1973_u0:b 0.0010
5 n_192:11 n_192:13 0.0020
6 n_192:10 n_192:12 0.0100
7 n_192:9 n_192:11 0.0005
8 n_192:8 n_192:10 0.0043
9 n_192:7 n_192:9 0.0100
10 n_192:6 n_192:8 0.0100
11 n_192:6 n_192:7 0.0220
12 n_192:5 n_192:6 0.0380
13 n_192:4 n_192:5 0.0100
14 n_192:2 n_192:4 0.0020
15 n_192:1 g2116_u1:o 0.0010
16 n_192:0 n_192:2 0.0020
17 n_192:0 n_192:1 0.0100
*END

*D_NET i_tx_phy_hold_reg_d_11 0.4180
*CONN
*I i_tx_phy_hold_reg_d_reg_1__u1:o O
*I g2054_u0:b I
*CAP
1 i_tx_phy_hold_reg_d_11:0 0.0125
2 i_tx_phy_hold_reg_d_11:1 0.0062
3 i_tx_phy_hold_reg_d_11:2 0.0125
4 i_tx_phy_hold_reg_d_reg_1__u1:o 0.0062
5 i_tx_phy_hold_reg_d_11:4 0.1248
6 i_tx_phy_hold_reg_d_11:5 0.1248
7 i_tx_phy_hold_reg_d_11:6 0.0468
8 i_tx_phy_hold_reg_d_11:7 0.0593
9 i_tx_phy_hold_reg_d_11:8 0.0125
10 i_tx_phy_hold_reg_d_11:9 0.0062
11 g2054_u0:b 0.0062
*RES
2 i_tx_phy_hold_reg_d_11:9 g2054_u0:b 0.0010
3 i_tx_phy_hold_reg_d_11:8 i_tx_phy_hold_reg_d_11:9 0.0100
4 i_tx_phy_hold_reg_d_11:7 i_tx_phy_hold_reg_d_11:8 0.0020
5 i_tx_phy_hold_reg_d_11:6 i_tx_phy_hold_reg_d_11:7 0.0075
6 i_tx_phy_hold_reg_d_11:5 i_tx_phy_hold_reg_d_11:6 0.0100
7 i_tx_phy_hold_reg_d_11:4 i_tx_phy_hold_reg_d_11:5 0.0200
8 i_tx_phy_hold_reg_d_11:2 i_tx_phy_hold_reg_d_11:4 0.0100
9 i_tx_phy_hold_reg_d_11:1 i_tx_phy_hold_reg_d_reg_1__u1:o 0.0010
10 i_tx_phy_hold_reg_d_11:0 i_tx_phy_hold_reg_d_11:2 0.0020
11 i_tx_phy_hold_reg_d_11:0 i_tx_phy_hold_reg_d_11:1 0.0100
*END

*D_NET n_210 0.2716
*CONN
*I g2026_u0:o O
*I g1950_u0:a I
*CAP
1 n_210:0 0.0130
2 n_210:1 0.0062
3 n_210:2 0.1104
4 g2026_u0:o 0.0062
5 n_210:4 0.1104
6 n_210:5 0.0130
7 n_210:6 0.0062
8 g1950_u0:a 0.0062
*RES
2 n_210:6 g1950_u0:a 0.0010
3 n_210:5 n_210:6 0.0100
4 n_210:4 n_210:5 0.0020
5 n_210:2 n_210:4 0.0150
6 n_210:1 g2026_u0:o 0.0010
7 n_210:0 n_210:2 0.0020
8 n_210:0 n_210:1 0.0100
*END

*D_NET newNet_117 1.3318
*CONN
*I newInst_117:o O
*I newInst_118:a I
*CAP
1 newInst_117:o 0.4127
2 newNet_117:1 0.4938
3 newInst_118:a 0.4253
*RES
2 newInst_117:o newNet_117:1 0.0990
3 newNet_117:1 newInst_118:a 0.0011
*END

*D_NET newNet_73 3.9655
*CONN
*I newInst_73:o O
*I i_tx_phy_ld_data_reg_u0:ck I
*I newInst_96:a I
*CAP
1 newInst_73:o 0.4448
2 newNet_73:1 0.3215
3 newNet_73:2 0.2378
4 newNet_73:3 0.4001
5 newNet_73:4 0.4420
6 i_tx_phy_ld_data_reg_u0:ck 0.2222
7 newNet_73:5 0.2809
8 newNet_73:6 0.0637
9 newNet_73:7 0.4466
10 newNet_73:8 0.3916
11 newNet_73:9 0.3596
12 newInst_96:a 0.3548
*RES
2 newInst_73:o newNet_73:1 0.3420
3 newNet_73:1 newNet_73:2 0.3597
4 newNet_73:2 newNet_73:3 0.3647
5 newNet_73:3 newNet_73:4 0.3425
6 newNet_73:4 i_tx_phy_ld_data_reg_u0:ck 0.1165
7 newNet_73:1 newNet_73:5 0.4030
8 newNet_73:5 newNet_73:6 0.4779
9 newNet_73:6 newNet_73:7 0.2777
10 newNet_73:7 newNet_73:8 0.4837
11 newNet_73:8 newNet_73:9 0.0359
12 newNet_73:9 newInst_96:a 0.0747
*END

*D_NET newNet_63 1.3725
*CONN
*I newInst_63:o O
*I newInst_64:a I
*I newInst_156:a I
*CAP
1 newInst_63:o 0.3691
2 newNet_63:1 0.3827
3 newInst_64:a 0.0250
4 newNet_63:2 0.1999
5 newInst_156:a 0.3958
*RES
2 newInst_63:o newNet_63:1 0.1642
3 newNet_63:1 newInst_64:a 0.1919
4 newNet_63:1 newNet_63:2 0.4060
5 newNet_63:2 newInst_156:a 0.1842
*END

*D_NET n_184 0.6546
*CONN
*I g2012_u0:o O
*I g1934_u0:a I
*CAP
1 n_184:0 0.0138
2 n_184:1 0.0062
3 n_184:2 0.0415
4 g1934_u0:a 0.0062
5 n_184:4 0.0277
6 n_184:5 0.2536
7 n_184:6 0.2536
8 n_184:7 0.0066
9 n_184:8 0.0198
10 n_184:9 0.0132
11 n_184:10 0.0062
12 g2012_u0:o 0.0062
*RES
2 n_184:10 g2012_u0:o 0.0010
3 n_184:9 n_184:10 0.0100
4 n_184:8 n_184:9 0.0020
5 n_184:7 n_184:8 0.0010
6 n_184:6 n_184:7 0.0100
7 n_184:5 n_184:6 0.0400
8 n_184:4 n_184:5 0.0100
9 n_184:2 n_184:4 0.0040
10 n_184:1 g1934_u0:a 0.0010
11 n_184:0 n_184:2 0.0020
12 n_184:0 n_184:1 0.0100
*END

*D_NET n_61 0.5850
*CONN
*I g2100_u0:o O
*I g2505_u0:a I
*CAP
1 n_61:0 0.0260
2 n_61:1 0.0062
3 n_61:2 0.2725
4 g2505_u0:a 0.0062
5 n_61:4 0.2603
6 n_61:5 0.0138
*RES
2 n_61:5 g2100_u0:o 0.0100
3 n_61:4 n_61:5 0.0020
4 n_61:2 n_61:4 0.0370
5 n_61:1 g2505_u0:a 0.0010
6 n_61:0 n_61:2 0.0040
7 n_61:0 n_61:1 0.0100
*END

*D_NET g2068_p 0.3556
*CONN
*I g2068_u0:o O
*I g2068_u1:a I
*CAP
1 g2068_p:0 0.0125
2 g2068_p:1 0.0062
3 g2068_p:2 0.0281
4 g2068_u1:a 0.0062
5 g2068_p:4 0.0156
6 g2068_p:5 0.1248
7 g2068_p:6 0.1248
8 g2068_p:7 0.0125
9 g2068_p:8 0.0125
10 g2068_p:9 0.0062
11 g2068_u0:o 0.0062
*RES
2 g2068_p:9 g2068_u0:o 0.0010
3 g2068_p:8 g2068_p:9 0.0100
4 g2068_p:7 g2068_p:8 0.0020
5 g2068_p:6 g2068_p:7 0.0100
6 g2068_p:5 g2068_p:6 0.0200
7 g2068_p:4 g2068_p:5 0.0100
8 g2068_p:2 g2068_p:4 0.0025
9 g2068_p:1 g2068_u1:a 0.0010
10 g2068_p:0 g2068_p:2 0.0020
11 g2068_p:0 g2068_p:1 0.0100
*END

*D_NET n_232 0.4570
*CONN
*I g1854_u0:o O
*I g1806_u0:a I
*CAP
1 n_232:0 0.0277
2 n_232:1 0.0062
3 n_232:2 0.1108
4 g1806_u0:a 0.0062
5 n_232:4 0.0831
6 n_232:5 0.0769
7 n_232:6 0.0769
8 n_232:7 0.0346
9 n_232:8 0.0346
*RES
2 n_232:8 g1854_u0:o 0.0100
3 n_232:7 n_232:8 0.0050
4 n_232:6 n_232:7 0.0100
5 n_232:5 n_232:6 0.0120
6 n_232:4 n_232:5 0.0100
7 n_232:2 n_232:4 0.0120
8 n_232:1 g1806_u0:a 0.0010
9 n_232:0 n_232:2 0.0040
10 n_232:0 n_232:1 0.0100
*END

*D_NET n_362 0.4868
*CONN
*I g1869_u0:o O
*I rst_cnt_reg_0__u0:d I
*CAP
1 n_362:0 0.0125
2 n_362:1 0.2122
3 n_362:3 0.2247
4 n_362:4 0.0250
5 n_362:5 0.0062
6 rst_cnt_reg_0__u0:d 0.0062
*RES
2 n_362:5 rst_cnt_reg_0__u0:d 0.0010
3 n_362:4 n_362:5 0.0100
4 n_362:3 n_362:4 0.0040
5 n_362:1 n_362:3 0.0320
6 n_362:0 g1869_u0:o 0.0100
7 n_362:0 n_362:1 0.0020
*END

*D_NET newNet_193 0.9204
*CONN
*I newInst_193:o O
*I newInst_194:a I
*CAP
1 newInst_193:o 0.1110
2 newNet_193:1 0.3549
3 newInst_194:a 0.4545
*RES
2 newInst_193:o newNet_193:1 0.0384
3 newNet_193:1 newInst_194:a 0.2530
*END

*D_NET i_tx_phy_txoe_r1 2.0652
*CONN
*I i_tx_phy_txoe_r1_reg_u0:o O
*I g1858_u0:d I
*I g2014_u0:b I
*I g2064_u0:c I
*I g2065_u0:c I
*CAP
1 i_tx_phy_txoe_r1:0 0.0130
2 i_tx_phy_txoe_r1:1 0.0062
3 i_tx_phy_txoe_r1:2 0.0130
4 g1858_u0:d 0.0062
5 i_tx_phy_txoe_r1:4 0.1373
6 i_tx_phy_txoe_r1:5 0.1373
7 i_tx_phy_txoe_r1:6 0.2175
8 i_tx_phy_txoe_r1:7 0.0487
9 i_tx_phy_txoe_r1:8 0.2597
10 i_tx_phy_txoe_r1:9 0.0487
11 i_tx_phy_txoe_r1:10 0.2372
12 i_tx_phy_txoe_r1:11 0.0062
13 i_tx_phy_txoe_r1:12 0.0812
14 i_tx_phy_txoe_r1:13 0.0390
15 i_tx_phy_txoe_r1:14 0.2372
16 g2065_u0:c 0.0062
17 i_tx_phy_txoe_r1:16 0.2372
18 i_tx_phy_txoe_r1:18 0.0097
19 i_tx_phy_txoe_r1:19 0.2372
20 i_tx_phy_txoe_r1:20 0.0227
21 i_tx_phy_txoe_r1:21 0.0130
22 i_tx_phy_txoe_r1:22 0.0130
23 i_tx_phy_txoe_r1:23 0.0130
24 i_tx_phy_txoe_r1:24 0.0062
25 i_tx_phy_txoe_r1:25 0.0062
26 g2064_u0:c 0.0062
27 g2014_u0:b 0.0062
*RES
2 i_tx_phy_txoe_r1:25 g2014_u0:b 0.0010
3 i_tx_phy_txoe_r1:24 g2064_u0:c 0.0010
4 i_tx_phy_txoe_r1:23 i_tx_phy_txoe_r1:25 0.0100
5 i_tx_phy_txoe_r1:22 i_tx_phy_txoe_r1:24 0.0100
6 i_tx_phy_txoe_r1:21 i_tx_phy_txoe_r1:23 0.0020
7 i_tx_phy_txoe_r1:20 i_tx_phy_txoe_r1:22 0.0020
8 i_tx_phy_txoe_r1:19 i_tx_phy_txoe_r1:21 0.0100
9 i_tx_phy_txoe_r1:18 i_tx_phy_txoe_r1:20 0.0015
10 i_tx_phy_txoe_r1:16 i_tx_phy_txoe_r1:19 0.0380
11 i_tx_phy_txoe_r1:14 i_tx_phy_txoe_r1:18 0.0100
12 i_tx_phy_txoe_r1:13 i_tx_phy_txoe_r1_reg_u0:o 0.0100
13 i_tx_phy_txoe_r1:12 i_tx_phy_txoe_r1:16 0.0100
14 i_tx_phy_txoe_r1:11 g2065_u0:c 0.0010
15 i_tx_phy_txoe_r1:10 i_tx_phy_txoe_r1:14 0.0380
16 i_tx_phy_txoe_r1:9 i_tx_phy_txoe_r1:13 0.0060
17 i_tx_phy_txoe_r1:8 i_tx_phy_txoe_r1:12 0.0125
18 i_tx_phy_txoe_r1:8 i_tx_phy_txoe_r1:11 0.0100
19 i_tx_phy_txoe_r1:7 i_tx_phy_txoe_r1:10 0.0100
20 i_tx_phy_txoe_r1:7 i_tx_phy_txoe_r1:9 0.0015
21 i_tx_phy_txoe_r1:6 i_tx_phy_txoe_r1:8 0.0275
22 i_tx_phy_txoe_r1:6 i_tx_phy_txoe_r1:7 0.0060
23 i_tx_phy_txoe_r1:5 i_tx_phy_txoe_r1:6 0.0100
24 i_tx_phy_txoe_r1:4 i_tx_phy_txoe_r1:5 0.0220
25 i_tx_phy_txoe_r1:2 i_tx_phy_txoe_r1:4 0.0100
26 i_tx_phy_txoe_r1:1 g1858_u0:d 0.0010
27 i_tx_phy_txoe_r1:0 i_tx_phy_txoe_r1:2 0.0020
28 i_tx_phy_txoe_r1:0 i_tx_phy_txoe_r1:1 0.0100
*END

*D_NET newNet_2 3.6782
*CONN
*I newInst_2:o O
*I i_tx_phy_one_cnt_reg_1__u0:ck I
*I newInst_6:a I
*I newInst_61:a I
*CAP
1 newInst_2:o 0.3570
2 newNet_2:1 0.0989
3 newNet_2:2 0.3901
4 newInst_6:a 0.0442
5 newNet_2:3 0.4854
6 newNet_2:4 0.4872
7 newNet_2:5 0.2682
8 newNet_2:6 0.1973
9 newNet_2:7 0.4835
10 i_tx_phy_one_cnt_reg_1__u0:ck 0.1624
11 newNet_2:8 0.2478
12 newNet_2:9 0.4092
13 newInst_61:a 0.0469
*RES
2 newInst_2:o newNet_2:1 0.4590
3 newNet_2:1 newNet_2:2 0.2179
4 newNet_2:2 newInst_6:a 0.0378
5 newNet_2:1 newNet_2:3 0.1622
6 newNet_2:3 newNet_2:4 0.0304
7 newNet_2:4 newNet_2:5 0.3267
8 newNet_2:5 newNet_2:6 0.3463
9 newNet_2:6 newNet_2:7 0.3825
10 newNet_2:7 i_tx_phy_one_cnt_reg_1__u0:ck 0.0638
11 newNet_2:7 newNet_2:8 0.2158
12 newNet_2:8 newNet_2:9 0.1233
13 newNet_2:9 newInst_61:a 0.1324
*END

*D_NET newNet_25 1.6945
*CONN
*I newInst_25:o O
*I newInst_26:a I
*I newInst_42:a I
*CAP
1 newInst_25:o 0.2546
2 newNet_25:1 0.2273
3 newNet_25:2 0.3983
4 newNet_25:3 0.1230
5 newInst_26:a 0.1821
6 newNet_25:4 0.3293
7 newInst_42:a 0.1799
*RES
2 newInst_25:o newNet_25:1 0.4930
3 newNet_25:1 newNet_25:2 0.1859
4 newNet_25:2 newNet_25:3 0.2913
5 newNet_25:3 newInst_26:a 0.0163
6 newNet_25:3 newNet_25:4 0.0465
7 newNet_25:4 newInst_42:a 0.2262
*END

*D_NET newNet_247 0.8404
*CONN
*I newInst_247:o O
*I newInst_248:a I
*CAP
1 newInst_247:o 0.4028
2 newNet_247:1 0.2331
3 newInst_248:a 0.2045
*RES
2 newInst_247:o newNet_247:1 0.0027
3 newNet_247:1 newInst_248:a 0.2557
*END

*D_NET n_331 0.3644
*CONN
*I g1916_u0:o O
*I g1841_u0:c I
*CAP
1 n_331:0 0.0128
2 n_331:1 0.0062
3 n_331:2 0.0160
4 g1841_u0:c 0.0062
5 n_331:4 0.0032
6 n_331:5 0.1282
7 n_331:6 0.1282
8 n_331:7 0.0128
9 n_331:8 0.0256
10 n_331:9 0.0128
11 n_331:10 0.0062
12 g1916_u0:o 0.0062
*RES
2 n_331:10 g1916_u0:o 0.0010
3 n_331:9 n_331:10 0.0100
4 n_331:8 n_331:9 0.0020
5 n_331:7 n_331:8 0.0020
6 n_331:6 n_331:7 0.0100
7 n_331:5 n_331:6 0.0200
8 n_331:4 n_331:5 0.0100
9 n_331:2 n_331:4 0.0005
10 n_331:1 g1841_u0:c 0.0010
11 n_331:0 n_331:2 0.0020
12 n_331:0 n_331:1 0.0100
*END

*D_NET n_341 0.3264
*CONN
*I g1868_u0:o O
*I g1815_u0:c I
*CAP
1 n_341:0 0.0130
2 n_341:1 0.0062
3 n_341:2 0.0130
4 g1868_u0:o 0.0062
5 n_341:4 0.1248
6 n_341:5 0.1248
7 n_341:6 0.0130
8 n_341:7 0.0130
9 n_341:8 0.0062
10 g1815_u0:c 0.0062
*RES
2 n_341:8 g1815_u0:c 0.0010
3 n_341:7 n_341:8 0.0100
4 n_341:6 n_341:7 0.0020
5 n_341:5 n_341:6 0.0100
6 n_341:4 n_341:5 0.0200
7 n_341:2 n_341:4 0.0100
8 n_341:1 g1868_u0:o 0.0010
9 n_341:0 n_341:2 0.0020
10 n_341:0 n_341:1 0.0100
*END

*D_NET n_509 2.3896
*CONN
*I g2190_u0:o O
*I g2130_u0:b I
*I g2677_u0:b I
*I g64_u0:b I
*CAP
1 n_509:0 0.0150
2 n_509:1 0.0062
3 n_509:2 0.0187
4 g2677_u0:b 0.0062
5 n_509:4 0.0037
6 n_509:5 0.6363
7 n_509:6 0.3766
8 n_509:7 0.2597
9 n_509:8 0.4002
10 n_509:9 0.0037
11 n_509:10 0.4963
12 n_509:11 0.0187
13 n_509:12 0.0062
14 n_509:13 0.0961
15 n_509:14 0.0150
16 g2190_u0:o 0.0062
17 n_509:16 0.0062
18 n_509:17 0.0062
19 g2130_u0:b 0.0062
20 g64_u0:b 0.0062
*RES
2 n_509:17 g64_u0:b 0.0010
3 n_509:16 g2130_u0:b 0.0010
4 n_509:14 n_509:17 0.0100
5 n_509:13 n_509:16 0.0100
6 n_509:12 g2190_u0:o 0.0010
7 n_509:11 n_509:14 0.0020
8 n_509:10 n_509:13 0.0150
9 n_509:10 n_509:12 0.0100
10 n_509:9 n_509:11 0.0005
11 n_509:8 n_509:10 0.0570
12 n_509:7 n_509:9 0.0100
13 n_509:6 n_509:8 0.0100
14 n_509:5 n_509:7 0.0400
15 n_509:5 n_509:6 0.0580
16 n_509:4 n_509:5 0.0100
17 n_509:2 n_509:4 0.0005
18 n_509:1 g2677_u0:b 0.0010
19 n_509:0 n_509:2 0.0020
20 n_509:0 n_509:1 0.0100
*END

*D_NET g1980_p 0.5304
*CONN
*I g1980_u0:o O
*I g1980_u1:a I
*CAP
1 g1980_p:0 0.0250
2 g1980_p:1 0.0062
3 g1980_p:2 0.2278
4 g1980_u0:o 0.0062
5 g1980_p:4 0.2278
6 g1980_p:5 0.0250
7 g1980_p:6 0.0062
8 g1980_u1:a 0.0062
*RES
2 g1980_p:6 g1980_u1:a 0.0010
3 g1980_p:5 g1980_p:6 0.0100
4 g1980_p:4 g1980_p:5 0.0040
5 g1980_p:2 g1980_p:4 0.0325
6 g1980_p:1 g1980_u0:o 0.0010
7 g1980_p:0 g1980_p:2 0.0040
8 g1980_p:0 g1980_p:1 0.0100
*END

*D_NET i_rx_phy_bit_cnt_2_ 1.9648
*CONN
*I i_rx_phy_bit_cnt_reg_2__u0:o O
*I g1744_u0:c I
*I g1824_u0:b I
*I g1881_u0:a I
*I g1881_u1:b I
*I g1902_u0:a I
*CAP
1 i_rx_phy_bit_cnt_2_:0 0.0128
2 i_rx_phy_bit_cnt_2_:1 0.0062
3 i_rx_phy_bit_cnt_2_:2 0.0160
4 g1902_u0:a 0.0062
5 i_rx_phy_bit_cnt_2_:4 0.0032
6 i_rx_phy_bit_cnt_2_:5 0.2435
7 i_rx_phy_bit_cnt_2_:6 0.2435
8 i_rx_phy_bit_cnt_2_:7 0.0128
9 i_rx_phy_bit_cnt_2_:8 0.3108
10 i_rx_phy_bit_cnt_2_:9 0.3460
11 i_rx_phy_bit_cnt_2_:10 0.0256
12 i_rx_phy_bit_cnt_2_:11 0.0801
13 i_rx_phy_bit_cnt_2_:12 0.0256
14 i_rx_phy_bit_cnt_2_:13 0.0062
15 i_rx_phy_bit_cnt_2_:14 0.0577
16 i_rx_phy_bit_cnt_2_:15 0.1153
17 i_rx_phy_bit_cnt_2_:16 0.0062
18 g1824_u0:b 0.0062
19 i_rx_phy_bit_cnt_2_:18 0.0256
20 i_rx_phy_bit_cnt_2_:19 0.2050
21 g1881_u1:b 0.0062
22 i_rx_phy_bit_cnt_2_:21 0.0062
23 i_rx_phy_bit_cnt_2_:22 0.0897
24 i_rx_phy_bit_cnt_2_:23 0.0160
25 g1881_u0:a 0.0062
26 i_rx_phy_bit_cnt_2_:25 0.0160
27 i_rx_phy_bit_cnt_2_:26 0.0288
28 i_rx_phy_bit_cnt_2_:27 0.0160
29 i_rx_phy_bit_cnt_2_:28 0.0128
30 i_rx_phy_bit_cnt_2_:30 0.0062
31 g1744_u0:c 0.0062
*RES
2 i_rx_phy_bit_cnt_2_:30 g1744_u0:c 0.0010
3 i_rx_phy_bit_cnt_2_:28 i_rx_phy_bit_cnt_2_:30 0.0100
4 i_rx_phy_bit_cnt_2_:27 i_rx_phy_bit_cnt_reg_2__u0:o 0.0100
5 i_rx_phy_bit_cnt_2_:26 i_rx_phy_bit_cnt_2_:28 0.0020
6 i_rx_phy_bit_cnt_2_:25 i_rx_phy_bit_cnt_2_:27 0.0025
7 i_rx_phy_bit_cnt_2_:23 i_rx_phy_bit_cnt_2_:26 0.0025
8 i_rx_phy_bit_cnt_2_:22 i_rx_phy_bit_cnt_2_:25 0.0100
9 i_rx_phy_bit_cnt_2_:21 g1881_u0:a 0.0010
10 i_rx_phy_bit_cnt_2_:19 i_rx_phy_bit_cnt_2_:23 0.0100
11 i_rx_phy_bit_cnt_2_:19 i_rx_phy_bit_cnt_2_:22 0.0140
12 i_rx_phy_bit_cnt_2_:18 i_rx_phy_bit_cnt_2_:21 0.0100
13 i_rx_phy_bit_cnt_2_:16 g1881_u1:b 0.0010
14 i_rx_phy_bit_cnt_2_:15 i_rx_phy_bit_cnt_2_:19 0.0180
15 i_rx_phy_bit_cnt_2_:14 i_rx_phy_bit_cnt_2_:18 0.0040
16 i_rx_phy_bit_cnt_2_:13 g1824_u0:b 0.0010
17 i_rx_phy_bit_cnt_2_:12 i_rx_phy_bit_cnt_2_:16 0.0100
18 i_rx_phy_bit_cnt_2_:11 i_rx_phy_bit_cnt_2_:15 0.0100
19 i_rx_phy_bit_cnt_2_:11 i_rx_phy_bit_cnt_2_:14 0.0050
20 i_rx_phy_bit_cnt_2_:10 i_rx_phy_bit_cnt_2_:13 0.0100
21 i_rx_phy_bit_cnt_2_:9 i_rx_phy_bit_cnt_2_:12 0.0040
22 i_rx_phy_bit_cnt_2_:9 i_rx_phy_bit_cnt_2_:11 0.0075
23 i_rx_phy_bit_cnt_2_:8 i_rx_phy_bit_cnt_2_:10 0.0040
24 i_rx_phy_bit_cnt_2_:8 i_rx_phy_bit_cnt_2_:9 0.0425
25 i_rx_phy_bit_cnt_2_:7 i_rx_phy_bit_cnt_2_:8 0.0020
26 i_rx_phy_bit_cnt_2_:6 i_rx_phy_bit_cnt_2_:7 0.0100
27 i_rx_phy_bit_cnt_2_:5 i_rx_phy_bit_cnt_2_:6 0.0380
28 i_rx_phy_bit_cnt_2_:4 i_rx_phy_bit_cnt_2_:5 0.0100
29 i_rx_phy_bit_cnt_2_:2 i_rx_phy_bit_cnt_2_:4 0.0005
30 i_rx_phy_bit_cnt_2_:1 g1902_u0:a 0.0010
31 i_rx_phy_bit_cnt_2_:0 i_rx_phy_bit_cnt_2_:2 0.0020
32 i_rx_phy_bit_cnt_2_:0 i_rx_phy_bit_cnt_2_:1 0.0100
*END

*D_NET n_484 0.2308
*CONN
*I g1741_u1:o O
*I i_tx_phy_hold_reg_reg_4__u0:d I
*CAP
1 n_484:0 0.0125
2 n_484:1 0.0062
3 n_484:2 0.0905
4 g1741_u1:o 0.0062
5 n_484:4 0.0905
6 n_484:5 0.0125
7 n_484:6 0.0062
8 i_tx_phy_hold_reg_reg_4__u0:d 0.0062
*RES
2 n_484:6 i_tx_phy_hold_reg_reg_4__u0:d 0.0010
3 n_484:5 n_484:6 0.0100
4 n_484:4 n_484:5 0.0020
5 n_484:2 n_484:4 0.0125
6 n_484:1 g1741_u1:o 0.0010
7 n_484:0 n_484:2 0.0020
8 n_484:0 n_484:1 0.0100
*END

*D_NET g1741_p 0.2620
*CONN
*I g1741_u0:o O