*SPEF "IEEE 1481-1998"
*DESIGN "changes"
*DATE "Mon Jan 05 14:32:02 2015"
*VENDOR "TAU 2015 Contest"
*PROGRAM "Benchmark Parasitic Generator"
*VERSION "0.0"
*DESIGN_FLOW "NETLIST_TYPE_VERILOG"
*DIVIDER /
*DELIMITER :
*BUS_DELIMITER [ ]
*T_UNIT 1 PS
*C_UNIT 1 FF
*R_UNIT 1 KOHM
*L_UNIT 1 UH

*D_NET net_435 1.7439
*CONN
*I inst_564:ZN O
*I inst_1714:A I
*CAP
1 inst_564:ZN 0.2611
2 net_435:1 0.4098
3 net_435:2 0.5009
4 net_435:3 0.2843
5 inst_1714:A 0.2878
*RES
2 inst_564:ZN net_435:1 0.1659
3 net_435:1 net_435:2 0.2742
4 net_435:2 net_435:3 0.3494
5 net_435:3 inst_1714:A 0.1485
*END

*D_NET net_2388 1.3760
*CONN
*I inst_2045:Q O
*I inst_2218:A2 I
*CAP
1 inst_2045:Q 0.2110
2 net_2388:1 0.3070
3 net_2388:2 0.3583
4 net_2388:3 0.1395
5 net_2388:4 0.0646
6 net_2388:5 0.0794
7 inst_2218:A2 0.2161
*RES
2 inst_2045:Q net_2388:1 0.1614
3 net_2388:1 net_2388:2 0.3312
4 net_2388:2 net_2388:3 0.3755
5 net_2388:3 net_2388:4 0.4644
6 net_2388:4 net_2388:5 0.4559
7 net_2388:5 inst_2218:A2 0.4050
*END

*D_NET net_47 1.9117
*CONN
*I inst_2095:QN O
*I inst_1286:A I
*I inst_1112:A2 I
*CAP
1 inst_2095:QN 0.1670
2 net_47:1 0.2440
3 net_47:2 0.0332
4 inst_1286:A 0.0406
5 net_47:3 0.3706
6 net_47:4 0.0740
7 net_47:5 0.4871
8 inst_1112:A2 0.4951
*RES
2 inst_2095:QN net_47:1 0.2732
3 net_47:1 net_47:2 0.0073
4 net_47:2 inst_1286:A 0.1308
5 net_47:1 net_47:3 0.4125
6 net_47:3 net_47:4 0.0565
7 net_47:4 net_47:5 0.1285
8 net_47:5 inst_1112:A2 0.0292
*END

*D_NET net_1606 2.3577
*CONN
*I inst_274:ZN O
*I inst_2118:D I
*CAP
1 inst_274:ZN 0.4507
2 net_1606:1 0.3995
3 net_1606:2 0.3845
4 net_1606:3 0.4708
5 net_1606:4 0.3056
6 inst_2118:D 0.3464
*RES
2 inst_274:ZN net_1606:1 0.0305
3 net_1606:1 net_1606:2 0.2383
4 net_1606:2 net_1606:3 0.4020
5 net_1606:3 net_1606:4 0.2529
6 net_1606:4 inst_2118:D 0.2665
*END

*D_NET net_1602 0.9086
*CONN
*I inst_271:ZN O
*I inst_2104:D I
*CAP
1 inst_271:ZN 0.1977
2 net_1602:1 0.3276
3 inst_2104:D 0.3833
*RES
2 inst_271:ZN net_1602:1 0.3292
3 net_1602:1 inst_2104:D 0.0716
*END

*D_NET net_2249 2.1306
*CONN
*I inst_2155:QN O
*I inst_246:B2 I
*I inst_1546:A I
*CAP
1 inst_2155:QN 0.1922
2 net_2249:1 0.1322
3 net_2249:2 0.1905
4 net_2249:3 0.4017
5 inst_246:B2 0.4680
6 net_2249:4 0.1868
7 net_2249:5 0.4889
8 inst_1546:A 0.0703
*RES
2 inst_2155:QN net_2249:1 0.2976
3 net_2249:1 net_2249:2 0.2331
4 net_2249:2 net_2249:3 0.2927
5 net_2249:3 inst_246:B2 0.3943
6 net_2249:2 net_2249:4 0.3298
7 net_2249:4 net_2249:5 0.4131
8 net_2249:5 inst_1546:A 0.3310
*END

*D_NET TAUNET_1008 3.1400
*CONN
*I TAUGATE_2949:Z O
*I TAUGATE_1008:A I
*I inst_577:A2 I
*CAP
1 TAUGATE_2949:Z 0.4792
2 TAUNET_1008:1 0.0717
3 TAUNET_1008:2 0.3990
4 inst_577:A2 0.4035
5 TAUNET_1008:3 0.3591
6 TAUNET_1008:4 0.2780
7 TAUNET_1008:5 0.2022
8 TAUNET_1008:6 0.1593
9 TAUNET_1008:7 0.4382
10 TAUGATE_1008:A 0.3498
*RES
2 TAUGATE_2949:Z TAUNET_1008:1 0.0219
3 TAUNET_1008:1 TAUNET_1008:2 0.0830
4 TAUNET_1008:2 inst_577:A2 0.4539
5 TAUNET_1008:2 TAUNET_1008:3 0.4055
6 TAUNET_1008:3 TAUNET_1008:4 0.4519
7 TAUNET_1008:4 TAUNET_1008:5 0.4658
8 TAUNET_1008:5 TAUNET_1008:6 0.3690
9 TAUNET_1008:6 TAUNET_1008:7 0.4019
10 TAUNET_1008:7 TAUGATE_1008:A 0.0632
*END

*D_NET net_1382 2.0111
*CONN
*I inst_2248:ZN O
*I inst_370:A I
*CAP
1 inst_2248:ZN 0.4700
2 net_1382:1 0.3545
3 net_1382:2 0.1033
4 net_1382:3 0.4316
5 net_1382:4 0.1782
6 inst_370:A 0.4734
*RES
2 inst_2248:ZN net_1382:1 0.0376
3 net_1382:1 net_1382:2 0.0972
4 net_1382:2 net_1382:3 0.3594
5 net_1382:3 net_1382:4 0.0525
6 net_1382:4 inst_370:A 0.3248
*END

*D_NET net_237 2.5362
*CONN
*I TAUGATE_2206:Z O
*I inst_302:B2 I
*I inst_102:SI I
*CAP
1 TAUGATE_2206:Z 0.1267
2 net_237:1 0.2434
3 net_237:2 0.3726
4 net_237:3 0.2980
5 net_237:4 0.2454
6 inst_102:SI 0.4670
7 net_237:5 0.3699
8 inst_302:B2 0.4131
*RES
2 TAUGATE_2206:Z net_237:1 0.1921
3 net_237:1 net_237:2 0.1376
4 net_237:2 net_237:3 0.4443
5 net_237:3 net_237:4 0.1288
6 net_237:4 inst_102:SI 0.3022
7 net_237:1 net_237:5 0.4004
8 net_237:5 inst_302:B2 0.4814
*END

*D_NET net_105 0.7257
*CONN
*I inst_1921:QN O
*I inst_193:A2 I
*CAP
1 inst_1921:QN 0.3915
2 net_105:1 0.3089
3 inst_193:A2 0.0253
*RES
2 inst_1921:QN net_105:1 0.3105
3 net_105:1 inst_193:A2 0.1881
*END

*D_NET net_943 1.4805
*CONN
*I inst_231:ZN O
*I inst_2117:D I
*CAP
1 inst_231:ZN 0.1592
2 net_943:1 0.2761
3 net_943:2 0.3643
4 net_943:3 0.2288
5 net_943:4 0.0666
6 inst_2117:D 0.3854
*RES
2 inst_231:ZN net_943:1 0.3580
3 net_943:1 net_943:2 0.3774
4 net_943:2 net_943:3 0.2731
5 net_943:3 net_943:4 0.1525
6 net_943:4 inst_2117:D 0.0518
*END

*D_NET net_429 1.2665
*CONN
*I inst_2580:ZN O
*I inst_421:B1 I
*CAP
1 inst_2580:ZN 0.2154
2 net_429:1 0.1648
3 net_429:2 0.1855
4 net_429:3 0.0112
5 net_429:4 0.3530
6 net_429:5 0.1128
7 inst_421:B1 0.2239
*RES
2 inst_2580:ZN net_429:1 0.0917
3 net_429:1 net_429:2 0.4230
4 net_429:2 net_429:3 0.1494
5 net_429:3 net_429:4 0.3290
6 net_429:4 net_429:5 0.1620
7 net_429:5 inst_421:B1 0.0029
*END

*D_NET net_694 1.0297
*CONN
*I inst_2363:ZN O
*I inst_922:A1 I
*CAP
1 inst_2363:ZN 0.1903
2 net_694:1 0.3484
3 net_694:2 0.0801
4 net_694:3 0.1392
5 net_694:4 0.1891
6 net_694:5 0.0464
7 inst_922:A1 0.0364
*RES
2 inst_2363:ZN net_694:1 0.0279
3 net_694:1 net_694:2 0.4104
4 net_694:2 net_694:3 0.0649
5 net_694:3 net_694:4 0.0510
6 net_694:4 net_694:5 0.1600
7 net_694:5 inst_922:A1 0.1748
*END

*D_NET net_1683 1.6599
*CONN
*I inst_1055:ZN O
*I inst_800:A2 I
*CAP
1 inst_1055:ZN 0.1076
2 net_1683:1 0.3388
3 net_1683:2 0.4657
4 net_1683:3 0.3595
5 net_1683:4 0.2471
6 net_1683:5 0.0832
7 inst_800:A2 0.0580
*RES
2 inst_1055:ZN net_1683:1 0.3736
3 net_1683:1 net_1683:2 0.0395
4 net_1683:2 net_1683:3 0.3644
5 net_1683:3 net_1683:4 0.0829
6 net_1683:4 net_1683:5 0.1977
7 net_1683:5 inst_800:A2 0.4694
*END

*D_NET TAUNET_762 2.0853
*CONN
*I TAUGATE_2706:Z O
*I TAUGATE_762:A I
*CAP
1 TAUGATE_2706:Z 0.3882
2 TAUNET_762:1 0.0413
3 TAUNET_762:2 0.4651
4 TAUNET_762:3 0.4065
5 TAUNET_762:4 0.3164
6 TAUNET_762:5 0.3513
7 TAUGATE_762:A 0.1165
*RES
2 TAUGATE_2706:Z TAUNET_762:1 0.0986
3 TAUNET_762:1 TAUNET_762:2 0.2243
4 TAUNET_762:2 TAUNET_762:3 0.1286
5 TAUNET_762:3 TAUNET_762:4 0.4269
6 TAUNET_762:4 TAUNET_762:5 0.2482
7 TAUNET_762:5 TAUGATE_762:A 0.2195
*END

*D_NET net_980 1.7569
*CONN
*I inst_2283:ZN O
*I inst_911:A1 I
*CAP
1 inst_2283:ZN 0.4091
2 net_980:1 0.3587
3 net_980:2 0.1869
4 net_980:3 0.4974
5 inst_911:A1 0.3047
*RES
2 inst_2283:ZN net_980:1 0.1200
3 net_980:1 net_980:2 0.4969
4 net_980:2 net_980:3 0.1210
5 net_980:3 inst_911:A1 0.1733
*END

*D_NET x3314 1.1896
*CONN
*P x3314 I
*I inst_2482:C2 I
*CAP
1 x3314 0.0283
2 x3314:1 0.2945
3 x3314:2 0.3177
4 x3314:3 0.2101
5 inst_2482:C2 0.3390
*RES
2 x3314 x3314:1 0.2046
3 x3314:1 x3314:2 0.3404
4 x3314:2 x3314:3 0.1317
5 x3314:3 inst_2482:C2 0.3617
*END

*D_NET net_1156 1.2055
*CONN
*I inst_1359:ZN O
*I inst_1066:A2 I
*CAP
1 inst_1359:ZN 0.3629
2 net_1156:1 0.3900
3 net_1156:2 0.0557
4 net_1156:3 0.1253
5 inst_1066:A2 0.2716
*RES
2 inst_1359:ZN net_1156:1 0.3735
3 net_1156:1 net_1156:2 0.1079
4 net_1156:2 net_1156:3 0.3323
5 net_1156:3 inst_1066:A2 0.2907
*END

*D_NET net_1071 1.4383
*CONN
*I inst_671:ZN O
*I inst_2012:D I
*CAP
1 inst_671:ZN 0.4966
2 net_1071:1 0.2702
3 net_1071:2 0.2135
4 net_1071:3 0.0419
5 net_1071:4 0.2773
6 net_1071:5 0.0903
7 inst_2012:D 0.0485
*RES
2 inst_671:ZN net_1071:1 0.4602
3 net_1071:1 net_1071:2 0.4262
4 net_1071:2 net_1071:3 0.2009
5 net_1071:3 net_1071:4 0.3114
6 net_1071:4 net_1071:5 0.3090
7 net_1071:5 inst_2012:D 0.3972
*END

*D_NET net_1095 1.1430
*CONN
*I inst_456:ZN O
*I inst_1957:D I
*CAP
1 inst_456:ZN 0.2443
2 net_1095:1 0.3734
3 net_1095:2 0.1567
4 net_1095:3 0.1247
5 inst_1957:D 0.2439
*RES
2 inst_456:ZN net_1095:1 0.2588
3 net_1095:1 net_1095:2 0.4474
4 net_1095:2 net_1095:3 0.3528
5 net_1095:3 inst_1957:D 0.0472
*END

*D_NET x4066 1.3929
*CONN
*P x4066 I
*I inst_1564:A I
*CAP
1 x4066 0.1981
2 x4066:1 0.0169
3 x4066:2 0.4026
4 x4066:3 0.4684
5 x4066:4 0.2490
6 inst_1564:A 0.0579
*RES
2 x4066 x4066:1 0.0423
3 x4066:1 x4066:2 0.2861
4 x4066:2 x4066:3 0.4278
5 x4066:3 x4066:4 0.3875
6 x4066:4 inst_1564:A 0.4796
*END

*D_NET net_545 1.0064
*CONN
*I inst_1024:ZN O
*I inst_321:A I
*CAP
1 inst_1024:ZN 0.1554
2 net_545:1 0.4380
3 inst_321:A 0.4130
*RES
2 inst_1024:ZN net_545:1 0.4990
3 net_545:1 inst_321:A 0.2134
*END

*D_NET net_1966 3.2744
*CONN
*I inst_745:ZN O
*I inst_1698:A I
*I inst_772:A1 I
*CAP
1 inst_745:ZN 0.4947
2 net_1966:1 0.2854
3 net_1966:2 0.4464
4 net_1966:3 0.2438
5 net_1966:4 0.2969
6 inst_1698:A 0.3091
7 net_1966:5 0.2468
8 net_1966:6 0.4002
9 net_1966:7 0.3652
10 inst_772:A1 0.1857
*RES
2 inst_745:ZN net_1966:1 0.5006
3 net_1966:1 net_1966:2 0.2264
4 net_1966:2 net_1966:3 0.3973
5 net_1966:3 net_1966:4 0.2044
6 net_1966:4 inst_1698:A 0.1531
7 net_1966:4 net_1966:5 0.0562
8 net_1966:5 net_1966:6 0.0882
9 net_1966:6 net_1966:7 0.4386
10 net_1966:7 inst_772:A1 0.2715
*END

*D_NET net_774 0.8240
*CONN
*I inst_2357:ZN O
*I inst_917:A2 I
*CAP
1 inst_2357:ZN 0.4145
2 net_774:1 0.1130
3 net_774:2 0.1026
4 inst_917:A2 0.1939
*RES
2 inst_2357:ZN net_774:1 0.1095
3 net_774:1 net_774:2 0.0212
4 net_774:2 inst_917:A2 0.1417
*END

*D_NET net_786 2.9073
*CONN
*I inst_1588:ZN O
*I inst_1022:A2 I
*I inst_2275:B2 I
*I inst_2540:B2 I
*CAP
1 inst_1588:ZN 0.4826
2 net_786:1 0.4033
3 net_786:2 0.3663
4 inst_2275:B2 0.2540
5 net_786:3 0.0863
6 inst_1022:A2 0.3102
7 net_786:4 0.4441
8 net_786:5 0.4218
9 net_786:6 0.0848
10 net_786:7 0.0266
11 inst_2540:B2 0.0274
*RES
2 inst_1588:ZN net_786:1 0.0526
3 net_786:1 net_786:2 0.2388
4 net_786:2 inst_2275:B2 0.1787
5 net_786:2 net_786:3 0.1239
6 net_786:3 inst_1022:A2 0.2473
7 net_786:2 net_786:4 0.4218
8 net_786:4 net_786:5 0.2061
9 net_786:5 net_786:6 0.2110
10 net_786:6 net_786:7 0.4583
11 net_786:7 inst_2540:B2 0.3985
*END

*D_NET x3346 1.9898
*CONN
*P x3346 I
*I inst_2497:C2 I
*CAP
1 x3346 0.0725
2 x3346:1 0.3124
3 x3346:2 0.3685
4 x3346:3 0.4317
5 x3346:4 0.1801
6 x3346:5 0.2826
7 inst_2497:C2 0.3420
*RES
2 x3346 x3346:1 0.0965
3 x3346:1 x3346:2 0.2555
4 x3346:2 x3346:3 0.1304
5 x3346:3 x3346:4 0.3675
6 x3346:4 x3346:5 0.4634
7 x3346:5 inst_2497:C2 0.2869
*END

*D_NET TAUNET_57 0.5511
*CONN
*I inst_811:ZN O
*I TAUGATE_57:A I
*CAP
1 inst_811:ZN 0.1182
2 TAUNET_57:1 0.0608
3 TAUGATE_57:A 0.3721
*RES
2 inst_811:ZN TAUNET_57:1 0.4648
3 TAUNET_57:1 TAUGATE_57:A 0.2376
*END

*D_NET TAUNET_2646 1.2804
*CONN
*I inst_131:ZN O
*I TAUGATE_2646:A I
*I inst_1098:A1 I
*CAP
1 inst_131:ZN 0.3081
2 TAUNET_2646:1 0.0264
3 TAUNET_2646:2 0.2502
4 TAUGATE_2646:A 0.2506
5 TAUNET_2646:3 0.2747
6 inst_1098:A1 0.1704
*RES
2 inst_131:ZN TAUNET_2646:1 0.4486
3 TAUNET_2646:1 TAUNET_2646:2 0.0641
4 TAUNET_2646:2 TAUGATE_2646:A 0.0138
5 TAUNET_2646:1 TAUNET_2646:3 0.2303
6 TAUNET_2646:3 inst_1098:A1 0.0121
*END

*D_NET net_1131 0.6221
*CONN
*I inst_889:ZN O
*I inst_1940:D I
*CAP
1 inst_889:ZN 0.0267
2 net_1131:1 0.1079
3 net_1131:2 0.3621
4 inst_1940:D 0.1254
*RES
2 inst_889:ZN net_1131:1 0.3490
3 net_1131:1 net_1131:2 0.4751
4 net_1131:2 inst_1940:D 0.3195
*END

*D_NET net_385 1.2894
*CONN
*I inst_498:ZN O
*I inst_1033:A1 I
*CAP
1 inst_498:ZN 0.2505
2 net_385:1 0.3990
3 net_385:2 0.0185
4 net_385:3 0.3777
5 inst_1033:A1 0.2437
*RES
2 inst_498:ZN net_385:1 0.3641
3 net_385:1 net_385:2 0.1411
4 net_385:2 net_385:3 0.2452
5 net_385:3 inst_1033:A1 0.2723
*END

*D_NET x1155 0.3445
*CONN
*I inst_1410:ZN O
*P x1155 O
*CAP
1 inst_1410:ZN 0.2449
2 x1155:1 0.0917
3 x1155 0.0078
*RES
2 inst_1410:ZN x1155:1 0.0227
3 x1155:1 x1155 0.0264
*END

*D_NET x15 0.9773
*CONN
*I inst_1705:ZN O
*P x15 O
*CAP
1 inst_1705:ZN 0.1906
2 x15:1 0.0937
3 x15:2 0.2944
4 x15 0.3987
*RES
2 inst_1705:ZN x15:1 0.0209
3 x15:1 x15:2 0.1182
4 x15:2 x15 0.1067
*END

*D_NET net_469 2.0282
*CONN
*I inst_679:ZN O
*I inst_686:A3 I
*CAP
1 inst_679:ZN 0.3672
2 net_469:1 0.1157
3 net_469:2 0.1901
4 net_469:3 0.2138
5 net_469:4 0.5008
6 net_469:5 0.2979
7 inst_686:A3 0.3428
*RES
2 inst_679:ZN net_469:1 0.2325
3 net_469:1 net_469:2 0.2733
4 net_469:2 net_469:3 0.1266
5 net_469:3 net_469:4 0.3814
6 net_469:4 net_469:5 0.1363
7 net_469:5 inst_686:A3 0.3277
*END

*D_NET net_1339 2.1088
*CONN
*I TAUGATE_14:Z O
*I inst_2558:B1 I
*I inst_388:A I
*CAP
1 TAUGATE_14:Z 0.4503
2 net_1339:1 0.1603
3 net_1339:2 0.4423
4 net_1339:3 0.1159
5 net_1339:4 0.4527
6 inst_388:A 0.1465
7 net_1339:5 0.1546
8 inst_2558:B1 0.1861
*RES
2 TAUGATE_14:Z net_1339:1 0.1463
3 net_1339:1 net_1339:2 0.4621
4 net_1339:2 net_1339:3 0.4065
5 net_1339:3 net_1339:4 0.0227
6 net_1339:4 inst_388:A 0.2236
7 net_1339:4 net_1339:5 0.4367
8 net_1339:5 inst_2558:B1 0.3452
*END

*D_NET net_984 0.3052
*CONN
*I inst_953:ZN O
*I inst_659:A2 I
*CAP
1 inst_953:ZN 0.1217
2 net_984:1 0.1222
3 inst_659:A2 0.0613
*RES
2 inst_953:ZN net_984:1 0.1692
3 net_984:1 inst_659:A2 0.4407
*END

*D_NET net_960 1.3881
*CONN
*I inst_2295:ZN O
*I inst_943:A1 I
*CAP
1 inst_2295:ZN 0.2563
2 net_960:1 0.2603
3 net_960:2 0.2874
4 net_960:3 0.3072
5 inst_943:A1 0.2768
*RES
2 inst_2295:ZN net_960:1 0.1679
3 net_960:1 net_960:2 0.2053
4 net_960:2 net_960:3 0.2140
5 net_960:3 inst_943:A1 0.3306
*END

*D_NET net_1284 6.4794
*CONN
*I inst_1246:ZN O
*I inst_2294:A2 I
*I inst_644:A3 I
*I inst_41:B I
*I inst_830:A2 I
*I inst_637:A3 I
*I inst_2227:A2 I
*CAP
1 inst_1246:ZN 0.2580
2 net_1284:1 0.4796
3 net_1284:2 0.3806
4 net_1284:3 0.4946
5 inst_644:A3 0.4608
6 net_1284:4 0.4103
7 net_1284:5 0.0845
8 inst_2294:A2 0.1888
9 net_1284:6 0.2069
10 inst_41:B 0.0491
11 net_1284:7 0.1831
12 net_1284:8 0.4110
13 net_1284:9 0.0191
14 inst_830:A2 0.3538
15 net_1284:10 0.5010
16 net_1284:11 0.3538
17 net_1284:12 0.4649
18 net_1284:13 0.0482
19 net_1284:14 0.1062
20 inst_637:A3 0.2963
21 net_1284:15 0.0470
22 net_1284:16 0.0745
23 net_1284:17 0.1738
24 inst_2227:A2 0.4336
*RES
2 inst_1246:ZN net_1284:1 0.4692
3 net_1284:1 net_1284:2 0.4766
4 net_1284:2 net_1284:3 0.0589
5 net_1284:3 inst_644:A3 0.0962
6 net_1284:2 net_1284:4 0.1436
7 net_1284:4 net_1284:5 0.1762
8 net_1284:5 inst_2294:A2 0.4748
9 net_1284:1 net_1284:6 0.4137
10 net_1284:6 inst_41:B 0.3046
11 net_1284:4 net_1284:7 0.4300
12 net_1284:7 net_1284:8 0.3629
13 net_1284:8 net_1284:9 0.0787
14 net_1284:9 inst_830:A2 0.2007
15 net_1284:6 net_1284:10 0.4911
16 net_1284:10 net_1284:11 0.2002
17 net_1284:11 net_1284:12 0.2573
18 net_1284:12 net_1284:13 0.3761
19 net_1284:13 net_1284:14 0.0616
20 net_1284:14 inst_637:A3 0.4298
21 net_1284:8 net_1284:15 0.4556
22 net_1284:15 net_1284:16 0.1284
23 net_1284:16 net_1284:17 0.0036
24 net_1284:17 inst_2227:A2 0.1731
*END

*D_NET TAUNET_2538 2.3968
*CONN
*I inst_2105:QN O
*I TAUGATE_2538:A I
*I inst_223:B2 I
*CAP
1 inst_2105:QN 0.3095
2 TAUNET_2538:1 0.4033
3 TAUNET_2538:2 0.2734
4 TAUNET_2538:3 0.3461
5 TAUNET_2538:4 0.3729
6 TAUNET_2538:5 0.0418
7 inst_223:B2 0.3671
8 TAUNET_2538:6 0.0489
9 TAUNET_2538:7 0.0861
10 TAUGATE_2538:A 0.1477
*RES
2 inst_2105:QN TAUNET_2538:1 0.3815
3 TAUNET_2538:1 TAUNET_2538:2 0.1458
4 TAUNET_2538:2 TAUNET_2538:3 0.4915
5 TAUNET_2538:3 TAUNET_2538:4 0.0683
6 TAUNET_2538:4 TAUNET_2538:5 0.2135
7 TAUNET_2538:5 inst_223:B2 0.4484
8 TAUNET_2538:1 TAUNET_2538:6 0.4806
9 TAUNET_2538:6 TAUNET_2538:7 0.3473
10 TAUNET_2538:7 TAUGATE_2538:A 0.1114
*END

*D_NET net_1505 1.0067
*CONN
*I inst_325:ZN O
*I inst_1725:D I
*CAP
1 inst_325:ZN 0.2366
2 net_1505:1 0.2818
3 net_1505:2 0.3290
4 inst_1725:D 0.1592
*RES
2 inst_325:ZN net_1505:1 0.4236
3 net_1505:1 net_1505:2 0.3328
4 net_1505:2 inst_1725:D 0.1906
*END

*D_NET net_501 1.5747
*CONN
*I inst_1424:ZN O
*I inst_1027:A1 I
*CAP
1 inst_1424:ZN 0.4347
2 net_501:1 0.1394
3 net_501:2 0.0096
4 net_501:3 0.4963
5 net_501:4 0.2377
6 inst_1027:A1 0.2571
*RES
2 inst_1424:ZN net_501:1 0.3610
3 net_501:1 net_501:2 0.0042
4 net_501:2 net_501:3 0.2690
5 net_501:3 net_501:4 0.3841
6 net_501:4 inst_1027:A1 0.3400
*END

*D_NET x2661 1.2277
*CONN
*I inst_1373:ZN O
*P x2661 O
*CAP
1 inst_1373:ZN 0.3112
2 x2661:1 0.4134
3 x2661:2 0.0741
4 x2661 0.4290
*RES
2 inst_1373:ZN x2661:1 0.4891
3 x2661:1 x2661:2 0.0621
4 x2661:2 x2661 0.2122
*END

*D_NET net_1166 1.5521
*CONN
*I inst_506:ZN O
*I inst_18:A I
*I inst_882:A1 I
*CAP
1 inst_506:ZN 0.1253
2 net_1166:1 0.2343
3 net_1166:2 0.1106
4 net_1166:3 0.0283
5 inst_18:A 0.2644
6 net_1166:4 0.0520
7 net_1166:5 0.1787
8 net_1166:6 0.3277
9 inst_882:A1 0.2308
*RES
2 inst_506:ZN net_1166:1 0.3395
3 net_1166:1 net_1166:2 0.4160
4 net_1166:2 net_1166:3 0.1311
5 net_1166:3 inst_18:A 0.1702
6 net_1166:2 net_1166:4 0.1825
7 net_1166:4 net_1166:5 0.4154
8 net_1166:5 net_1166:6 0.4205
9 net_1166:6 inst_882:A1 0.1921
*END

*D_NET net_2202 5.1351
*CONN
*I inst_2093:QN O
*I inst_266:B2 I
*I inst_2595:A2 I
*I inst_137:A2 I
*I inst_2478:B2 I
*I inst_607:A1 I
*CAP
1 inst_2093:QN 0.0500
2 net_2202:1 0.2552
3 net_2202:2 0.2397
4 net_2202:3 0.3943
5 net_2202:4 0.0450
6 inst_2478:B2 0.3586
7 net_2202:5 0.0277
8 net_2202:6 0.2232
9 net_2202:7 0.0700
10 net_2202:8 0.3825
11 inst_2595:A2 0.4916
12 net_2202:9 0.2996
13 inst_137:A2 0.1500
14 net_2202:10 0.2976
15 net_2202:11 0.3531
16 net_2202:12 0.0316
17 net_2202:13 0.1823
18 net_2202:14 0.0755
19 inst_266:B2 0.3163
20 net_2202:15 0.4709
21 inst_607:A1 0.4204
*RES
2 inst_2093:QN net_2202:1 0.1804
3 net_2202:1 net_2202:2 0.2132
4 net_2202:2 net_2202:3 0.3448
5 net_2202:3 net_2202:4 0.2539
6 net_2202:4 inst_2478:B2 0.0169
7 net_2202:3 net_2202:5 0.0258
8 net_2202:5 net_2202:6 0.0722
9 net_2202:6 net_2202:7 0.0268
10 net_2202:7 net_2202:8 0.0274
11 net_2202:8 inst_2595:A2 0.0955
12 net_2202:1 net_2202:9 0.2720
13 net_2202:9 inst_137:A2 0.0605
14 net_2202:4 net_2202:10 0.3515
15 net_2202:10 net_2202:11 0.2983
16 net_2202:11 net_2202:12 0.4269
17 net_2202:12 net_2202:13 0.0493
18 net_2202:13 net_2202:14 0.0341
19 net_2202:14 inst_266:B2 0.3020
20 net_2202:12 net_2202:15 0.0122
21 net_2202:15 inst_607:A1 0.2688
*END

*D_NET net_2169 3.4091
*CONN
*I inst_2595:ZN O
*I inst_677:A2 I
*I inst_676:A2 I
*I inst_1020:A2 I
*CAP
1 inst_2595:ZN 0.3051
2 net_2169:1 0.2956
3 net_2169:2 0.2210
4 inst_677:A2 0.0970
5 net_2169:3 0.0161
6 net_2169:4 0.2047
7 net_2169:5 0.3729
8 net_2169:6 0.0610
9 inst_676:A2 0.4010
10 net_2169:7 0.3618
11 net_2169:8 0.0820
12 net_2169:9 0.2174
13 net_2169:10 0.3638
14 inst_1020:A2 0.4097
*RES
2 inst_2595:ZN net_2169:1 0.2798
3 net_2169:1 net_2169:2 0.3150
4 net_2169:2 inst_677:A2 0.0137
5 net_2169:1 net_2169:3 0.2910
6 net_2169:3 net_2169:4 0.3768
7 net_2169:4 net_2169:5 0.3083
8 net_2169:5 net_2169:6 0.1250
9 net_2169:6 inst_676:A2 0.3526
10 net_2169:5 net_2169:7 0.2418
11 net_2169:7 net_2169:8 0.4080
12 net_2169:8 net_2169:9 0.3118
13 net_2169:9 net_2169:10 0.4981
14 net_2169:10 inst_1020:A2 0.3134
*END

*D_NET x4821 0.8985
*CONN
*P x4821 I
*I inst_79:SI I
*I inst_1591:A I
*CAP
1 x4821 0.1396
2 x4821:1 0.1278
3 inst_1591:A 0.3093
4 x4821:2 0.0712
5 x4821:3 0.0044
6 x4821:4 0.1986
7 inst_79:SI 0.0476
*RES
2 x4821 x4821:1 0.3342
3 x4821:1 inst_1591:A 0.2150
4 x4821:1 x4821:2 0.0521
5 x4821:2 x4821:3 0.0546
6 x4821:3 x4821:4 0.0043
7 x4821:4 inst_79:SI 0.2737
*END

*D_NET net_906 1.2711
*CONN
*I inst_2303:ZN O
*I inst_478:A I
*CAP
1 inst_2303:ZN 0.2677
2 net_906:1 0.1466
3 net_906:2 0.2784
4 net_906:3 0.2008
5 inst_478:A 0.3776
*RES
2 inst_2303:ZN net_906:1 0.2937
3 net_906:1 net_906:2 0.0093
4 net_906:2 net_906:3 0.2822
5 net_906:3 inst_478:A 0.4311
*END

*D_NET net_1231 1.6512
*CONN
*I inst_856:ZN O
*I inst_793:A2 I
*CAP
1 inst_856:ZN 0.1138
2 net_1231:1 0.3567
3 net_1231:2 0.3242
4 net_1231:3 0.2336
5 net_1231:4 0.3863
6 inst_793:A2 0.2365
*RES
2 inst_856:ZN net_1231:1 0.1037
3 net_1231:1 net_1231:2 0.3572
4 net_1231:2 net_1231:3 0.2211
5 net_1231:3 net_1231:4 0.2185
6 net_1231:4 inst_793:A2 0.2266
*END

*D_NET net_2256 2.5687
*CONN
*I TAUGATE_1:Z O
*I inst_263:B2 I
*I inst_591:A2 I
*CAP
1 TAUGATE_1:Z 0.1297
2 net_2256:1 0.2417
3 net_2256:2 0.2444
4 net_2256:3 0.4262
5 net_2256:4 0.3737
6 net_2256:5 0.3015
7 inst_591:A2 0.1830
8 net_2256:6 0.1111
9 net_2256:7 0.3711
10 net_2256:8 0.0512
11 inst_263:B2 0.1351
*RES
2 TAUGATE_1:Z net_2256:1 0.3035
3 net_2256:1 net_2256:2 0.4053
4 net_2256:2 net_2256:3 0.0863
5 net_2256:3 net_2256:4 0.2362
6 net_2256:4 net_2256:5 0.1365
7 net_2256:5 inst_591:A2 0.0277
8 net_2256:5 net_2256:6 0.0984
9 net_2256:6 net_2256:7 0.0368
10 net_2256:7 net_2256:8 0.4376
11 net_2256:8 inst_263:B2 0.1423
*END

*D_NET net_111 2.0911
*CONN
*I inst_1862:QN O
*I inst_154:A2 I
*CAP
1 inst_1862:QN 0.1146
2 net_111:1 0.4610
3 net_111:2 0.4832
4 net_111:3 0.2776
5 net_111:4 0.3781
6 inst_154:A2 0.3766
*RES
2 inst_1862:QN net_111:1 0.0185
3 net_111:1 net_111:2 0.3877
4 net_111:2 net_111:3 0.1588
5 net_111:3 net_111:4 0.3738
6 net_111:4 inst_154:A2 0.4556
*END

*D_NET TAUNET_141 1.0723
*CONN
*I TAUGATE_1993:Z O
*I TAUGATE_141:A I
*CAP
1 TAUGATE_1993:Z 0.0020
2 TAUNET_141:1 0.3010
3 TAUNET_141:2 0.2164
4 TAUNET_141:3 0.4372
5 TAUGATE_141:A 0.1158
*RES
2 TAUGATE_1993:Z TAUNET_141:1 0.1153
3 TAUNET_141:1 TAUNET_141:2 0.3810
4 TAUNET_141:2 TAUNET_141:3 0.1100
5 TAUNET_141:3 TAUGATE_141:A 0.1662
*END

*D_NET net_707 1.8929
*CONN
*I inst_1433:ZN O
*I inst_231:A2 I
*I inst_257:A2 I
*CAP
1 inst_1433:ZN 0.2541
2 net_707:1 0.4625
3 net_707:2 0.2343
4 net_707:3 0.0981
5 inst_257:A2 0.3461
6 net_707:4 0.0414
7 net_707:5 0.2455
8 net_707:6 0.1970
9 inst_231:A2 0.0138
*RES
2 inst_1433:ZN net_707:1 0.2382
3 net_707:1 net_707:2 0.4109
4 net_707:2 net_707:3 0.0945
5 net_707:3 inst_257:A2 0.2326
6 net_707:2 net_707:4 0.4527
7 net_707:4 net_707:5 0.3131
8 net_707:5 net_707:6 0.4392
9 net_707:6 inst_231:A2 0.4048
*END

*D_NET net_100 1.7566
*CONN
*I inst_1872:QN O
*I inst_176:A2 I
*CAP
1 inst_1872:QN 0.3283
2 net_100:1 0.4199
3 net_100:2 0.3736
4 net_100:3 0.3306
5 inst_176:A2 0.3042
*RES
2 inst_1872:QN net_100:1 0.1317
3 net_100:1 net_100:2 0.1481
4 net_100:2 net_100:3 0.2485
5 net_100:3 inst_176:A2 0.2201
*END

*D_NET x957 0.7087
*CONN
*I inst_1389:ZN O
*P x957 O
*CAP
1 inst_1389:ZN 0.3013
2 x957:1 0.0262
3 x957 0.3812
*RES
2 inst_1389:ZN x957:1 0.0656
3 x957:1 x957 0.1550
*END

*D_NET net_2231 1.3180
*CONN
*I inst_2003:QN O
*I inst_200:A2 I
*CAP
1 inst_2003:QN 0.1418
2 net_2231:1 0.3805
3 net_2231:2 0.2523
4 net_2231:3 0.0497
5 inst_200:A2 0.4938
*RES
2 inst_2003:QN net_2231:1 0.3913
3 net_2231:1 net_2231:2 0.2131
4 net_2231:2 net_2231:3 0.3201
5 net_2231:3 inst_200:A2 0.0320
*END

*D_NET net_636 2.1105
*CONN
*I TAUGATE_1086:Z O
*I inst_404:A I
*CAP
1 TAUGATE_1086:Z 0.3378
2 net_636:1 0.2454
3 net_636:2 0.4527
4 net_636:3 0.2663
5 net_636:4 0.3641
6 net_636:5 0.1740
7 inst_404:A 0.2701
*RES
2 TAUGATE_1086:Z net_636:1 0.3351
3 net_636:1 net_636:2 0.4105
4 net_636:2 net_636:3 0.3004
5 net_636:3 net_636:4 0.3665
6 net_636:4 net_636:5 0.1341
7 net_636:5 inst_404:A 0.0859
*END

*D_NET net_263 0.5333
*CONN
*I inst_1523:ZN O
*I inst_284:B2 I
*CAP
1 inst_1523:ZN 0.3812
2 net_263:1 0.1227
3 inst_284:B2 0.0294
*RES
2 inst_1523:ZN net_263:1 0.0059
3 net_263:1 inst_284:B2 0.3552
*END

*D_NET net_1200 2.1906
*CONN
*I inst_877:ZN O
*I inst_785:A2 I
*CAP
1 inst_877:ZN 0.1840
2 net_1200:1 0.3573
3 net_1200:2 0.4559
4 net_1200:3 0.3575
5 net_1200:4 0.1715
6 net_1200:5 0.3050
7 inst_785:A2 0.3594
*RES
2 inst_877:ZN net_1200:1 0.4902
3 net_1200:1 net_1200:2 0.4716
4 net_1200:2 net_1200:3 0.2112
5 net_1200:3 net_1200:4 0.1762
6 net_1200:4 net_1200:5 0.1166
7 net_1200:5 inst_785:A2 0.1660
*END

*D_NET TAUNET_2619 3.4913
*CONN
*I TAUGATE_1705:Z O
*I TAUGATE_2619:A I
*I inst_230:B2 I
*CAP
1 TAUGATE_1705:Z 0.2908
2 TAUNET_2619:1 0.3308
3 TAUNET_2619:2 0.4080
4 TAUNET_2619:3 0.4669
5 TAUNET_2619:4 0.1932
6 TAUGATE_2619:A 0.0675
7 TAUNET_2619:5 0.4574
8 TAUNET_2619:6 0.4683
9 TAUNET_2619:7 0.1543
10 TAUNET_2619:8 0.4873
11 inst_230:B2 0.1669
*RES
2 TAUGATE_1705:Z TAUNET_2619:1 0.0053
3 TAUNET_2619:1 TAUNET_2619:2 0.1459
4 TAUNET_2619:2 TAUNET_2619:3 0.0437
5 TAUNET_2619:3 TAUNET_2619:4 0.4598
6 TAUNET_2619:4 TAUGATE_2619:A 0.3838
7 TAUNET_2619:2 TAUNET_2619:5 0.4800
8 TAUNET_2619:5 TAUNET_2619:6 0.4518
9 TAUNET_2619:6 TAUNET_2619:7 0.0570
10 TAUNET_2619:7 TAUNET_2619:8 0.4909
11 TAUNET_2619:8 inst_230:B2 0.0572
*END

*D_NET x1357 1.5455
*CONN
*I inst_171:ZN O
*P x1357 O
*CAP
1 inst_171:ZN 0.1013
2 x1357:1 0.4210
3 x1357:2 0.2594
4 x1357:3 0.3565
5 x1357 0.4074
*RES
2 inst_171:ZN x1357:1 0.4309
3 x1357:1 x1357:2 0.4474
4 x1357:2 x1357:3 0.2931
5 x1357:3 x1357 0.2848
*END

*D_NET x3098 3.4330
*CONN
*P x3098 I
*I inst_2646:A1 I
*I inst_2582:A2 I
*I inst_568:A1 I
*CAP
1 x3098 0.3320
2 x3098:1 0.3663
3 x3098:2 0.1512
4 x3098:3 0.1368
5 x3098:4 0.4493
6 inst_2582:A2 0.4663
7 x3098:5 0.3075
8 x3098:6 0.0604
9 inst_2646:A1 0.3908
10 x3098:7 0.3010
11 x3098:8 0.1515
12 x3098:9 0.0492
13 inst_568:A1 0.2707
*RES
2 x3098 x3098:1 0.2866
3 x3098:1 x3098:2 0.1873
4 x3098:2 x3098:3 0.1599
5 x3098:3 x3098:4 0.3589
6 x3098:4 inst_2582:A2 0.4697
7 x3098:3 x3098:5 0.2921
8 x3098:5 x3098:6 0.4162
9 x3098:6 inst_2646:A1 0.1285
10 x3098:5 x3098:7 0.0711
11 x3098:7 x3098:8 0.2365
12 x3098:8 x3098:9 0.0021
13 x3098:9 inst_568:A1 0.2080
*END

*D_NET TAUNET_2100 2.0999
*CONN
*I TAUGATE_2545:Z O
*I TAUGATE_2100:A I
*CAP
1 TAUGATE_2545:Z 0.4886
2 TAUNET_2100:1 0.4404
3 TAUNET_2100:2 0.3187
4 TAUNET_2100:3 0.4272
5 TAUNET_2100:4 0.0224
6 TAUGATE_2100:A 0.4026
*RES
2 TAUGATE_2545:Z TAUNET_2100:1 0.2784
3 TAUNET_2100:1 TAUNET_2100:2 0.1803
4 TAUNET_2100:2 TAUNET_2100:3 0.0882
5 TAUNET_2100:3 TAUNET_2100:4 0.2924
6 TAUNET_2100:4 TAUGATE_2100:A 0.4780
*END

*D_NET net_319 1.0540
*CONN
*I inst_1622:ZN O
*I inst_2419:A2 I
*CAP
1 inst_1622:ZN 0.1182
2 net_319:1 0.1530
3 net_319:2 0.2582
4 net_319:3 0.4484
5 inst_2419:A2 0.0762
*RES
2 inst_1622:ZN net_319:1 0.1986
3 net_319:1 net_319:2 0.3922
4 net_319:2 net_319:3 0.3950
5 net_319:3 inst_2419:A2 0.2666
*END

*D_NET net_420 2.9101
*CONN
*I inst_138:ZN O
*I inst_678:A3 I
*I inst_565:A2 I
*CAP
1 inst_138:ZN 0.4671
2 net_420:1 0.3936
3 net_420:2 0.4880
4 net_420:3 0.4169
5 inst_565:A2 0.3167
6 net_420:4 0.1908
7 net_420:5 0.1996
8 net_420:6 0.3123
9 inst_678:A3 0.1251
*RES
2 inst_138:ZN net_420:1 0.3376
3 net_420:1 net_420:2 0.1073
4 net_420:2 net_420:3 0.3579
5 net_420:3 inst_565:A2 0.1300
6 net_420:3 net_420:4 0.0048
7 net_420:4 net_420:5 0.3126
8 net_420:5 net_420:6 0.0195
9 net_420:6 inst_678:A3 0.0541
*END

*D_NET net_665 1.9167
*CONN
*I inst_1007:ZN O
*I inst_450:B I
*CAP
1 inst_1007:ZN 0.3260
2 net_665:1 0.4948
3 net_665:2 0.4038
4 net_665:3 0.1954
5 net_665:4 0.0063
6 inst_450:B 0.4904
*RES
2 inst_1007:ZN net_665:1 0.0915
3 net_665:1 net_665:2 0.4619
4 net_665:2 net_665:3 0.1065
5 net_665:3 net_665:4 0.1990
6 net_665:4 inst_450:B 0.2576
*END

*D_NET net_1630 0.6723
*CONN
*I inst_2402:ZN O
*I inst_925:A2 I
*CAP
1 inst_2402:ZN 0.2231
2 net_1630:1 0.0661
3 net_1630:2 0.0281
4 net_1630:3 0.1011
5 inst_925:A2 0.2539
*RES
2 inst_2402:ZN net_1630:1 0.0765
3 net_1630:1 net_1630:2 0.1980
4 net_1630:2 net_1630:3 0.3226
5 net_1630:3 inst_925:A2 0.1282
*END

*D_NET TAUNET_2615 18.4175
*CONN
*I TAUGATE_2468:Z O
*I TAUGATE_2615:A I
*I inst_2492:C1 I
*I inst_2479:C1 I
*I inst_2482:C1 I
*I inst_2484:C1 I
*I inst_2493:C1 I
*I inst_2483:C1 I
*I inst_2496:C1 I
*I inst_2491:C1 I
*I inst_2481:C1 I
*I inst_2486:C1 I
*I inst_2480:C1 I
*I inst_2498:C1 I
*I inst_2490:C1 I
*I inst_2487:C1 I
*CAP
1 TAUGATE_2468:Z 0.4045
2 TAUNET_2615:1 0.4596
3 TAUNET_2615:2 0.3295
4 TAUNET_2615:3 0.4724
5 TAUNET_2615:4 0.4631
6 TAUNET_2615:5 0.0407
7 inst_2491:C1 0.4130
8 TAUNET_2615:6 0.0346
9 TAUNET_2615:7 0.4333
10 TAUNET_2615:8 0.0645
11 inst_2492:C1 0.3416
12 TAUNET_2615:9 0.2746
13 TAUNET_2615:10 0.4228
14 inst_2479:C1 0.1417
15 TAUNET_2615:11 0.4926
16 TAUNET_2615:12 0.0580
17 TAUNET_2615:13 0.3810
18 TAUNET_2615:14 0.2195
19 TAUNET_2615:15 0.2042
20 inst_2482:C1 0.2030
21 TAUNET_2615:16 0.0857
22 TAUNET_2615:17 0.2654
23 TAUNET_2615:18 0.2245
24 TAUNET_2615:19 0.4797
25 TAUNET_2615:20 0.0551
26 inst_2484:C1 0.1877
27 TAUNET_2615:21 0.2766
28 TAUNET_2615:22 0.3086
29 TAUNET_2615:23 0.2353
30 inst_2493:C1 0.4838
31 TAUNET_2615:24 0.3681
32 TAUNET_2615:25 0.4419
33 TAUNET_2615:26 0.1561
34 TAUNET_2615:27 0.1347
35 TAUNET_2615:28 0.0224
36 inst_2483:C1 0.3933
37 TAUNET_2615:29 0.2242
38 inst_2496:C1 0.4834
39 TAUNET_2615:30 0.4721
40 TAUNET_2615:31 0.1185
41 TAUNET_2615:32 0.4585
42 TAUGATE_2615:A 0.3703
43 TAUNET_2615:33 0.1640
44 TAUNET_2615:34 0.1778
45 TAUNET_2615:35 0.3155
46 TAUNET_2615:36 0.4909
47 TAUNET_2615:37 0.2285
48 inst_2481:C1 0.2293
49 TAUNET_2615:38 0.3973
50 TAUNET_2615:39 0.0682
51 TAUNET_2615:40 0.0813
52 inst_2486:C1 0.2235
53 TAUNET_2615:41 0.2711
54 TAUNET_2615:42 0.1177
55 TAUNET_2615:43 0.1130
56 TAUNET_2615:44 0.0719
57 inst_2480:C1 0.2913
58 TAUNET_2615:45 0.4330
59 TAUNET_2615:46 0.3792
60 inst_2498:C1 0.3945
61 TAUNET_2615:47 0.3986
62 inst_2490:C1 0.0342
63 TAUNET_2615:48 0.0789
64 TAUNET_2615:49 0.1418
65 TAUNET_2615:50 0.2162
66 TAUNET_2615:51 0.3480
67 TAUNET_2615:52 0.3423
68 inst_2487:C1 0.3091
*RES
2 TAUGATE_2468:Z TAUNET_2615:1 0.3462
3 TAUNET_2615:1 TAUNET_2615:2 0.0714
4 TAUNET_2615:2 TAUNET_2615:3 0.2110
5 TAUNET_2615:3 TAUNET_2615:4 0.2588
6 TAUNET_2615:4 TAUNET_2615:5 0.0339
7 TAUNET_2615:5 inst_2491:C1 0.0519
8 TAUNET_2615:3 TAUNET_2615:6 0.4099
9 TAUNET_2615:6 TAUNET_2615:7 0.1540
10 TAUNET_2615:7 TAUNET_2615:8 0.0325
11 TAUNET_2615:8 inst_2492:C1 0.0924
12 TAUNET_2615:4 TAUNET_2615:9 0.3754
13 TAUNET_2615:9 TAUNET_2615:10 0.2016
14 TAUNET_2615:10 inst_2479:C1 0.0068
15 TAUNET_2615:5 TAUNET_2615:11 0.2656
16 TAUNET_2615:11 TAUNET_2615:12 0.4413
17 TAUNET_2615:12 TAUNET_2615:13 0.1336
18 TAUNET_2615:13 TAUNET_2615:14 0.4042
19 TAUNET_2615:14 TAUNET_2615:15 0.0451
20 TAUNET_2615:15 inst_2482:C1 0.2391
21 TAUNET_2615:1 TAUNET_2615:16 0.0973
22 TAUNET_2615:16 TAUNET_2615:17 0.4235
23 TAUNET_2615:17 TAUNET_2615:18 0.1903
24 TAUNET_2615:18 TAUNET_2615:19 0.2143
25 TAUNET_2615:19 TAUNET_2615:20 0.0701
26 TAUNET_2615:20 inst_2484:C1 0.2421
27 TAUNET_2615:20 TAUNET_2615:21 0.0722
28 TAUNET_2615:21 TAUNET_2615:22 0.3539
29 TAUNET_2615:22 TAUNET_2615:23 0.3446
30 TAUNET_2615:23 inst_2493:C1 0.0192
31 TAUNET_2615:6 TAUNET_2615:24 0.2244
32 TAUNET_2615:24 TAUNET_2615:25 0.4154
33 TAUNET_2615:25 TAUNET_2615:26 0.1374