*SPEF "IEEE 1481-1998"
*DESIGN "changes"
*DATE "Mon Jan 05 14:31:50 2015"
*VENDOR "TAU 2015 Contest"
*PROGRAM "Benchmark Parasitic Generator"
*VERSION "0.0"
*DESIGN_FLOW "NETLIST_TYPE_VERILOG"
*DIVIDER /
*DELIMITER :
*BUS_DELIMITER [ ]
*T_UNIT 1 PS
*C_UNIT 1 FF
*R_UNIT 1 KOHM
*L_UNIT 1 UH

*D_NET TAUNET_9 1.7439
*CONN
*I inst_464:ZN O
*I TAUGATE_9:A I
*CAP
1 inst_464:ZN 0.2611
2 TAUNET_9:1 0.4098
3 TAUNET_9:2 0.5009
4 TAUNET_9:3 0.2843
5 TAUGATE_9:A 0.2878
*RES
2 inst_464:ZN TAUNET_9:1 0.1659
3 TAUNET_9:1 TAUNET_9:2 0.2742
4 TAUNET_9:2 TAUNET_9:3 0.3494
5 TAUNET_9:3 TAUGATE_9:A 0.1485
*END

*D_NET net_1141 1.3760
*CONN
*I TAUGATE_7:Z O
*I inst_358:B2 I
*CAP
1 TAUGATE_7:Z 0.2110
2 net_1141:1 0.3070
3 net_1141:2 0.3583
4 net_1141:3 0.1395
5 net_1141:4 0.0646
6 net_1141:5 0.0794
7 inst_358:B2 0.2161
*RES
2 TAUGATE_7:Z net_1141:1 0.1614
3 net_1141:1 net_1141:2 0.3312
4 net_1141:2 net_1141:3 0.3755
5 net_1141:3 net_1141:4 0.4644
6 net_1141:4 net_1141:5 0.4559
7 net_1141:5 inst_358:B2 0.4050
*END

*D_NET TAUNET_5 0.4849
*CONN
*I inst_2529:ZN O
*I TAUGATE_5:A I
*CAP
1 inst_2529:ZN 0.1670
2 TAUNET_5:1 0.2440
3 TAUNET_5:2 0.0332
4 TAUGATE_5:A 0.0406
*RES
2 inst_2529:ZN TAUNET_5:1 0.2732
3 TAUNET_5:1 TAUNET_5:2 0.0073
4 TAUNET_5:2 TAUGATE_5:A 0.1308
*END

*D_NET net_1050 1.8161
*CONN
*I TAUGATE_9:Z O
*I inst_1944:D I
*CAP
1 TAUGATE_9:Z 0.2909
2 net_1050:1 0.0740
3 net_1050:2 0.4871
4 net_1050:3 0.4951
5 net_1050:4 0.4125
6 inst_1944:D 0.0565
*RES
2 TAUGATE_9:Z net_1050:1 0.1285
3 net_1050:1 net_1050:2 0.0292
4 net_1050:2 net_1050:3 0.2926
5 net_1050:3 net_1050:4 0.4507
6 net_1050:4 inst_1944:D 0.3356
*END

*D_NET TAUNET_8 1.9602
*CONN
*I inst_1973:Q O
*I TAUGATE_8:A I
*CAP
1 inst_1973:Q 0.3845
2 TAUNET_8:1 0.3056
3 TAUNET_8:2 0.3464
4 TAUNET_8:3 0.0305
5 TAUNET_8:4 0.2383
6 TAUNET_8:5 0.4020
7 TAUGATE_8:A 0.2529
*RES
2 inst_1973:Q TAUNET_8:1 0.2665
3 TAUNET_8:1 TAUNET_8:2 0.4354
4 TAUNET_8:2 TAUNET_8:3 0.1977
5 TAUNET_8:3 TAUNET_8:4 0.0788
6 TAUNET_8:4 TAUNET_8:5 0.3276
7 TAUNET_8:5 TAUGATE_8:A 0.3833
*END

*D_NET net_1617 0.8670
*CONN
*I TAUGATE_6:Z O
*I inst_449:B I
*CAP
1 TAUGATE_6:Z 0.0716
2 net_1617:1 0.1922
3 net_1617:2 0.2805
4 net_1617:3 0.1322
5 inst_449:B 0.1905
*RES
2 TAUGATE_6:Z net_1617:1 0.4017
3 net_1617:1 net_1617:2 0.4680
4 net_1617:2 net_1617:3 0.2976
5 net_1617:3 inst_449:B 0.2331
*END

*D_NET TAUNET_6 1.3358
*CONN
*I inst_687:ZN O
*I TAUGATE_6:A I
*CAP
1 inst_687:ZN 0.3943
2 TAUNET_6:1 0.1955
3 TAUNET_6:2 0.1868
4 TAUNET_6:3 0.4889
5 TAUGATE_6:A 0.0703
*RES
2 inst_687:ZN TAUNET_6:1 0.3298
3 TAUNET_6:1 TAUNET_6:2 0.4131
4 TAUNET_6:2 TAUNET_6:3 0.3310
5 TAUNET_6:3 TAUGATE_6:A 0.2621
*END

*D_NET net_2139 4.6899
*CONN
*I TAUGATE_8:Z O
*I inst_2303:A2 I
*I inst_2208:B2 I
*I inst_708:A1 I
*CAP
1 TAUGATE_8:Z 0.1808
2 net_2139:1 0.3990
3 inst_708:A1 0.4035
4 net_2139:2 0.3591
5 net_2139:3 0.2780
6 net_2139:4 0.2022
7 net_2139:5 0.1593
8 net_2139:6 0.4382
9 inst_2208:B2 0.3498
10 net_2139:7 0.3789
11 net_2139:8 0.3545
12 net_2139:9 0.1033
13 net_2139:10 0.4316
14 net_2139:11 0.1782
15 inst_2303:A2 0.4734
*RES
2 TAUGATE_8:Z net_2139:1 0.0219
3 net_2139:1 inst_708:A1 0.0830
4 net_2139:1 net_2139:2 0.4055
5 net_2139:2 net_2139:3 0.4519
6 net_2139:3 net_2139:4 0.4658
7 net_2139:4 net_2139:5 0.3690
8 net_2139:5 net_2139:6 0.4019
9 net_2139:6 inst_2208:B2 0.0632
10 net_2139:3 net_2139:7 0.0376
11 net_2139:7 net_2139:8 0.0972
12 net_2139:8 net_2139:9 0.3594
13 net_2139:9 net_2139:10 0.0525
14 net_2139:10 net_2139:11 0.3248
15 net_2139:11 inst_2303:A2 0.2597
*END

*D_NET net_804 1.7670
*CONN
*I TAUGATE_5:Z O
*I inst_667:A3 I
*CAP
1 TAUGATE_5:Z 0.3840
2 net_804:1 0.3726
3 net_804:2 0.2980
4 net_804:3 0.2454
5 inst_667:A3 0.4670
*RES
2 TAUGATE_5:Z net_804:1 0.1921
3 net_804:1 net_804:2 0.1376
4 net_804:2 net_804:3 0.4443
5 net_804:3 inst_667:A3 0.1288
*END

*D_NET TAUNET_7 0.9235
*CONN
*I inst_26:ZN O
*I TAUGATE_7:A I
*CAP
1 inst_26:ZN 0.1405
2 TAUNET_7:1 0.3699
3 TAUGATE_7:A 0.4131
*RES
2 inst_26:ZN TAUNET_7:1 0.4004
3 TAUNET_7:1 TAUGATE_7:A 0.4814
*END

