*SPEF "IEEE 1481-1998"
*DESIGN "changes"
*DATE "Mon Jan 05 14:31:49 2015"
*VENDOR "TAU 2015 Contest"
*PROGRAM "Benchmark Parasitic Generator"
*VERSION "0.0"
*DESIGN_FLOW "NETLIST_TYPE_VERILOG"
*DIVIDER /
*DELIMITER :
*BUS_DELIMITER [ ]
*T_UNIT 1 PS
*C_UNIT 1 FF
*R_UNIT 1 KOHM
*L_UNIT 1 UH

*D_NET TAUNET_4 1.7439
*CONN
*I inst_1075:ZN O
*I TAUGATE_4:A I
*CAP
1 inst_1075:ZN 0.2611
2 TAUNET_4:1 0.4098
3 TAUNET_4:2 0.5009
4 TAUNET_4:3 0.2843
5 TAUGATE_4:A 0.2878
*RES
2 inst_1075:ZN TAUNET_4:1 0.1659
3 TAUNET_4:1 TAUNET_4:2 0.2742
4 TAUNET_4:2 TAUNET_4:3 0.3494
5 TAUNET_4:3 TAUGATE_4:A 0.1485
*END

*D_NET TAUNET_2 1.3760
*CONN
*I inst_1740:QN O
*I TAUGATE_2:A I
*CAP
1 inst_1740:QN 0.2110
2 TAUNET_2:1 0.3070
3 TAUNET_2:2 0.3583
4 TAUNET_2:3 0.1395
5 TAUNET_2:4 0.0646
6 TAUNET_2:5 0.0794
7 TAUGATE_2:A 0.2161
*RES
2 inst_1740:QN TAUNET_2:1 0.1614
3 TAUNET_2:1 TAUNET_2:2 0.3312
4 TAUNET_2:2 TAUNET_2:3 0.3755
5 TAUNET_2:3 TAUNET_2:4 0.4644
6 TAUNET_2:4 TAUNET_2:5 0.4559
7 TAUNET_2:5 TAUGATE_2:A 0.4050
*END

*D_NET TAUNET_3 0.4849
*CONN
*I inst_724:ZN O
*I TAUGATE_3:A I
*CAP
1 inst_724:ZN 0.1670
2 TAUNET_3:1 0.2440
3 TAUNET_3:2 0.0332
4 TAUGATE_3:A 0.0406
*RES
2 inst_724:ZN TAUNET_3:1 0.2732
3 TAUNET_3:1 TAUNET_3:2 0.0073
4 TAUNET_3:2 TAUGATE_3:A 0.1308
*END

*D_NET net_1816 1.8161
*CONN
*I TAUGATE_4:Z O
*I inst_790:A1 I
*CAP
1 TAUGATE_4:Z 0.2909
2 net_1816:1 0.0740
3 net_1816:2 0.4871
4 net_1816:3 0.4951
5 net_1816:4 0.4125
6 inst_790:A1 0.0565
*RES
2 TAUGATE_4:Z net_1816:1 0.1285
3 net_1816:1 net_1816:2 0.0292
4 net_1816:2 net_1816:3 0.2926
5 net_1816:3 net_1816:4 0.4507
6 net_1816:4 inst_790:A1 0.3356
*END

*D_NET net_1643 4.2828
*CONN
*I TAUGATE_3:Z O
*I inst_29:A I
*I inst_142:A1 I
*I inst_575:A1 I
*CAP
1 TAUGATE_3:Z 0.3845
2 net_1643:1 0.3056
3 net_1643:2 0.3464
4 net_1643:3 0.0305
5 net_1643:4 0.2383
6 net_1643:5 0.4020
7 inst_575:A1 0.2529
8 net_1643:6 0.2236
9 inst_142:A1 0.1922
10 net_1643:7 0.4680
11 net_1643:8 0.2976
12 net_1643:9 0.2331
13 net_1643:10 0.2927
14 net_1643:11 0.3943
15 inst_29:A 0.2211
*RES
2 TAUGATE_3:Z net_1643:1 0.2665
3 net_1643:1 net_1643:2 0.4354
4 net_1643:2 net_1643:3 0.1977
5 net_1643:3 net_1643:4 0.0788
6 net_1643:4 net_1643:5 0.3276
7 net_1643:5 inst_575:A1 0.3833
8 net_1643:4 net_1643:6 0.2805
9 net_1643:6 inst_142:A1 0.1322
10 net_1643:3 net_1643:7 0.1955
11 net_1643:7 net_1643:8 0.1868
12 net_1643:8 net_1643:9 0.4889
13 net_1643:9 net_1643:10 0.0703
14 net_1643:10 net_1643:11 0.3298
15 net_1643:11 inst_29:A 0.4131
*END

*D_NET net_2365 2.6155
*CONN
*I TAUGATE_2:Z O
*I inst_1501:A I
*I inst_497:A1 I
*CAP
1 TAUGATE_2:Z 0.2621
2 net_2365:1 0.1808
3 net_2365:2 0.0717
4 net_2365:3 0.3990
5 net_2365:4 0.4035
6 net_2365:5 0.0219
7 inst_497:A1 0.0830
8 net_2365:6 0.4382
9 net_2365:7 0.3498
10 inst_1501:A 0.4055
*RES
2 TAUGATE_2:Z net_2365:1 0.4539
3 net_2365:1 net_2365:2 0.1250
4 net_2365:2 net_2365:3 0.3196
5 net_2365:3 net_2365:4 0.4976
6 net_2365:4 net_2365:5 0.3591
7 net_2365:5 inst_497:A1 0.2780
8 net_2365:2 net_2365:6 0.4519
9 net_2365:6 net_2365:7 0.4658
10 net_2365:7 inst_1501:A 0.3690
*END

