*SPEF "IEEE 1481-1998"
*DESIGN "changes"
*DATE "Mon Jan 05 14:31:51 2015"
*VENDOR "TAU 2015 Contest"
*PROGRAM "Benchmark Parasitic Generator"
*VERSION "0.0"
*DESIGN_FLOW "NETLIST_TYPE_VERILOG"
*DIVIDER /
*DELIMITER :
*BUS_DELIMITER [ ]
*T_UNIT 1 PS
*C_UNIT 1 FF
*R_UNIT 1 KOHM
*L_UNIT 1 UH

*D_NET net_2428 3.0173
*CONN
*I TAUGATE_18:Z O
*I inst_692:A2 I
*I inst_1503:A I
*CAP
1 TAUGATE_18:Z 0.2611
2 net_2428:1 0.4098
3 net_2428:2 0.5009
4 net_2428:3 0.2843
5 inst_692:A2 0.2878
6 net_2428:4 0.4685
7 net_2428:5 0.3070
8 net_2428:6 0.3583
9 inst_1503:A 0.1395
*RES
2 TAUGATE_18:Z net_2428:1 0.1659
3 net_2428:1 net_2428:2 0.2742
4 net_2428:2 net_2428:3 0.3494
5 net_2428:3 inst_692:A2 0.1485
6 net_2428:3 net_2428:4 0.0646
7 net_2428:4 net_2428:5 0.0794
8 net_2428:5 net_2428:6 0.2161
9 net_2428:6 inst_1503:A 0.1614
*END

*D_NET TAUNET_13 1.8183
*CONN
*I inst_1655:ZN O
*I TAUGATE_13:A I
*CAP
1 inst_1655:ZN 0.3755
2 TAUNET_13:1 0.4559
3 TAUNET_13:2 0.4050
4 TAUNET_13:3 0.0154
5 TAUNET_13:4 0.1670
6 TAUNET_13:5 0.1555
7 TAUGATE_13:A 0.2440
*RES
2 inst_1655:ZN TAUNET_13:1 0.0332
3 TAUNET_13:1 TAUNET_13:2 0.0406
4 TAUNET_13:2 TAUNET_13:3 0.2732
5 TAUNET_13:3 TAUNET_13:4 0.0073
6 TAUNET_13:4 TAUNET_13:5 0.1308
7 TAUNET_13:5 TAUGATE_13:A 0.1374
*END

*D_NET TAUNET_12 1.3529
*CONN
*I inst_805:ZN O
*I TAUGATE_12:A I
*CAP
1 inst_805:ZN 0.3706
2 TAUNET_12:1 0.4871
3 TAUGATE_12:A 0.4951
*RES
2 inst_805:ZN TAUNET_12:1 0.4125
3 TAUNET_12:1 TAUGATE_12:A 0.0565
*END

*D_NET net_914 1.5997
*CONN
*I TAUGATE_11:Z O
*I inst_1777:D I
*CAP
1 TAUGATE_11:Z 0.0292
2 net_914:1 0.4507
3 net_914:2 0.3356
4 net_914:3 0.3995
5 inst_1777:D 0.3845
*RES
2 TAUGATE_11:Z net_914:1 0.4708
3 net_914:1 net_914:2 0.3056
4 net_914:2 net_914:3 0.3464
5 net_914:3 inst_1777:D 0.0305
*END

*D_NET x1520 1.3804
*CONN
*I TAUGATE_56:Z O
*P x1520 O
*CAP
1 TAUGATE_56:Z 0.4020
2 x1520:1 0.2665
3 x1520:2 0.4354
4 x1520:3 0.1977
5 x1520 0.0788
*RES
2 TAUGATE_56:Z x1520:1 0.3276
3 x1520:1 x1520:2 0.3833
4 x1520:2 x1520:3 0.3292
5 x1520:3 x1520 0.0716
*END

*D_NET net_800 1.3846
*CONN
*I TAUGATE_41:Z O
*I inst_703:A3 I
*CAP
1 TAUGATE_41:Z 0.1922
2 net_800:1 0.1322
3 net_800:2 0.1905
4 net_800:3 0.4017
5 inst_703:A3 0.4680
*RES
2 TAUGATE_41:Z net_800:1 0.2976
3 net_800:1 net_800:2 0.2331
4 net_800:2 net_800:3 0.2927
5 net_800:3 inst_703:A3 0.3943
*END

*D_NET net_2101 1.0845
*CONN
*I TAUGATE_52:Z O
*I inst_1177:A I
*CAP
1 TAUGATE_52:Z 0.1955
2 net_2101:1 0.4889
3 net_2101:2 0.0703
4 inst_1177:A 0.3298
*RES
2 TAUGATE_52:Z net_2101:1 0.4131
3 net_2101:1 net_2101:2 0.3310
4 net_2101:2 inst_1177:A 0.2621
*END

*D_NET net_1308 0.9833
*CONN
*I TAUGATE_12:Z O
*I inst_1895:D I
*CAP
1 TAUGATE_12:Z 0.1808
2 net_1308:1 0.3990
3 inst_1895:D 0.4035
*RES
2 TAUGATE_12:Z net_1308:1 0.0219
3 net_1308:1 inst_1895:D 0.0830
*END

*D_NET x862 1.6212
*CONN
*I TAUGATE_36:Z O
*P x862 O
*CAP
1 TAUGATE_36:Z 0.1250
2 x862:1 0.4976
3 x862:2 0.3591
4 x862:3 0.2780
5 x862:4 0.2022
6 x862 0.1593
*RES
2 TAUGATE_36:Z x862:1 0.4382
3 x862:1 x862:2 0.3498
4 x862:2 x862:3 0.4055
5 x862:3 x862:4 0.4519
6 x862:4 x862 0.4658
*END

*D_NET net_1193 1.1222
*CONN
*I TAUGATE_40:Z O
*I inst_851:A1 I
*CAP
1 TAUGATE_40:Z 0.4019
2 net_1193:1 0.2503
3 inst_851:A1 0.4700
*RES
2 TAUGATE_40:Z net_1193:1 0.3789
3 net_1193:1 inst_851:A1 0.3545
*END

*D_NET TAUNET_35 1.0398
*CONN
*I inst_2011:QN O
*I TAUGATE_35:A I
*CAP
1 inst_2011:QN 0.4316
2 TAUNET_35:1 0.4734
3 TAUNET_35:2 0.0376
4 TAUGATE_35:A 0.0972
*RES
2 inst_2011:QN TAUNET_35:1 0.3594
3 TAUNET_35:1 TAUNET_35:2 0.0525
4 TAUNET_35:2 TAUGATE_35:A 0.3248
*END

*D_NET net_603 3.3972
*CONN
*I TAUGATE_50:Z O
*I inst_548:A1 I
*I inst_677:A1 I
*I inst_676:A1 I
*CAP
1 TAUGATE_50:Z 0.1267
2 net_603:1 0.2434
3 net_603:2 0.3726
4 net_603:3 0.2980
5 net_603:4 0.2454
6 inst_677:A1 0.4670
7 net_603:5 0.3699
8 inst_548:A1 0.4131
9 net_603:6 0.0282
10 net_603:7 0.3089
11 net_603:8 0.0253
12 net_603:9 0.3105
13 inst_676:A1 0.1881
*RES
2 TAUGATE_50:Z net_603:1 0.1921
3 net_603:1 net_603:2 0.1376
4 net_603:2 net_603:3 0.4443
5 net_603:3 net_603:4 0.1288
6 net_603:4 inst_677:A1 0.3022
7 net_603:1 net_603:5 0.4004
8 net_603:5 inst_548:A1 0.4814
9 net_603:2 net_603:6 0.2034
10 net_603:6 net_603:7 0.1592
11 net_603:7 net_603:8 0.3147
12 net_603:8 net_603:9 0.2761
13 net_603:9 inst_676:A1 0.3643
*END

*D_NET net_1855 2.0181
*CONN
*I TAUGATE_31:Z O
*I inst_2438:A2 I
*I inst_2439:A2 I
*CAP
1 TAUGATE_31:Z 0.0666
2 net_1855:1 0.3580
3 net_1855:2 0.3774
4 net_1855:3 0.2731
5 net_1855:4 0.1525
6 inst_2438:A2 0.0518
7 net_1855:5 0.2239
8 net_1855:6 0.0917
9 inst_2439:A2 0.4230
*RES
2 TAUGATE_31:Z net_1855:1 0.2548
3 net_1855:1 net_1855:2 0.2154
4 net_1855:2 net_1855:3 0.4921
5 net_1855:3 net_1855:4 0.1648
6 net_1855:4 inst_2438:A2 0.1855
7 net_1855:4 net_1855:5 0.1494
8 net_1855:5 net_1855:6 0.3290
9 net_1855:6 inst_2439:A2 0.1620
*END

*D_NET TAUNET_46 1.1549
*CONN
*I inst_2342:ZN O
*I TAUGATE_46:A I
*CAP
1 inst_2342:ZN 0.2883
2 TAUNET_46:1 0.4381
3 TAUNET_46:2 0.3484
4 TAUGATE_46:A 0.0801
*RES
2 inst_2342:ZN TAUNET_46:1 0.1392
3 TAUNET_46:1 TAUNET_46:2 0.1891
4 TAUNET_46:2 TAUGATE_46:A 0.0464
*END

*D_NET x5181 2.4316
*CONN
*I TAUGATE_58:Z O
*I inst_1070:A1 I
*I inst_2201:B2 I
*I inst_1675:A I
*CAP
1 TAUGATE_58:Z 0.0279
2 x5181:1 0.0649
3 x5181:2 0.0510
4 x5181:3 0.1600
5 x5181:4 0.1748
6 x5181:5 0.4787
7 inst_1070:A1 0.1076
8 x5181:6 0.3644
9 inst_2201:B2 0.0829
10 x5181:7 0.3513
11 x5181:8 0.1165
12 x5181:9 0.0986
13 x5181:10 0.2243
14 inst_1675:A 0.1286
*RES
2 TAUGATE_58:Z x5181:1 0.4606
3 x5181:1 x5181:2 0.3388
4 x5181:2 x5181:3 0.4657
5 x5181:3 x5181:4 0.3595
6 x5181:4 x5181:5 0.2471
7 x5181:5 inst_1070:A1 0.0832
8 x5181:5 x5181:6 0.1977
9 x5181:6 inst_2201:B2 0.4694
10 x5181:6 x5181:7 0.4269
11 x5181:7 x5181:8 0.2482
12 x5181:8 x5181:9 0.2195
13 x5181:9 x5181:10 0.1533
14 x5181:10 inst_1675:A 0.4091
*END

*D_NET x1937 1.2809
*CONN
*I TAUGATE_48:Z O
*P x1937 O
*CAP
1 TAUGATE_48:Z 0.3587
2 x1937:1 0.4974
3 x1937:2 0.3047
4 x1937 0.1200
*RES
2 TAUGATE_48:Z x1937:1 0.4969
3 x1937:1 x1937:2 0.1210
4 x1937:2 x1937 0.1733
*END

*D_NET TAUNET_24 1.1896
*CONN
*I inst_471:ZN O
*I TAUGATE_24:A I
*CAP
1 inst_471:ZN 0.0283
2 TAUNET_24:1 0.2945
3 TAUNET_24:2 0.3177
4 TAUNET_24:3 0.2101
5 TAUGATE_24:A 0.3390
*RES
2 inst_471:ZN TAUNET_24:1 0.2046
3 TAUNET_24:1 TAUNET_24:2 0.3404
4 TAUNET_24:2 TAUNET_24:3 0.1317
5 TAUNET_24:3 TAUGATE_24:A 0.3617
*END

*D_NET TAUNET_16 1.2055
*CONN
*I inst_2627:ZN O
*I TAUGATE_16:A I
*CAP
1 inst_2627:ZN 0.3629
2 TAUNET_16:1 0.3900
3 TAUNET_16:2 0.0557
4 TAUNET_16:3 0.1253
5 TAUGATE_16:A 0.2716
*RES
2 inst_2627:ZN TAUNET_16:1 0.3735
3 TAUNET_16:1 TAUNET_16:2 0.1079
4 TAUNET_16:2 TAUNET_16:3 0.3323
5 TAUNET_16:3 TAUGATE_16:A 0.2907
*END

*D_NET x3365 1.4383
*CONN
*I TAUGATE_33:Z O
*I inst_2484:C2 I
*CAP
1 TAUGATE_33:Z 0.4966
2 x3365:1 0.2702
3 x3365:2 0.2135
4 x3365:3 0.0419
5 x3365:4 0.2773
6 x3365:5 0.0903
7 inst_2484:C2 0.0485
*RES
2 TAUGATE_33:Z x3365:1 0.4602
3 x3365:1 x3365:2 0.4262
4 x3365:2 x3365:3 0.2009
5 x3365:3 x3365:4 0.3114
6 x3365:4 x3365:5 0.3090
7 x3365:5 inst_2484:C2 0.3972
*END

*D_NET TAUNET_31 1.1430
*CONN
*I inst_1672:ZN O
*I TAUGATE_31:A I
*CAP
1 inst_1672:ZN 0.2443
2 TAUNET_31:1 0.3734
3 TAUNET_31:2 0.1567
4 TAUNET_31:3 0.1247
5 TAUGATE_31:A 0.2439
*RES
2 inst_1672:ZN TAUNET_31:1 0.2588
3 TAUNET_31:1 TAUNET_31:2 0.4474
4 TAUNET_31:2 TAUNET_31:3 0.3528
5 TAUNET_31:3 TAUGATE_31:A 0.0472
*END

*D_NET TAUNET_25 1.3929
*CONN
*I inst_2018:QN O
*I TAUGATE_25:A I
*CAP
1 inst_2018:QN 0.1981
2 TAUNET_25:1 0.0169
3 TAUNET_25:2 0.4026
4 TAUNET_25:3 0.4684
5 TAUNET_25:4 0.2490
6 TAUGATE_25:A 0.0579
*RES
2 inst_2018:QN TAUNET_25:1 0.0423
3 TAUNET_25:1 TAUNET_25:2 0.2861
4 TAUNET_25:2 TAUNET_25:3 0.4278
5 TAUNET_25:3 TAUNET_25:4 0.3875
6 TAUNET_25:4 TAUGATE_25:A 0.4796
*END

*D_NET TAUNET_27 1.0064
*CONN
*I inst_1354:ZN O
*I TAUGATE_27:A I
*CAP
1 inst_1354:ZN 0.1554
2 TAUNET_27:1 0.4380
3 TAUGATE_27:A 0.4130
*RES
2 inst_1354:ZN TAUNET_27:1 0.4990
3 TAUNET_27:1 TAUGATE_27:A 0.2134
*END

*D_NET net_302 3.6840
*CONN
*I TAUGATE_34:Z O
*I inst_2520:B2 I
*I inst_2512:C2 I
*I inst_1036:A2 I
*CAP
1 TAUGATE_34:Z 0.4947
2 net_302:1 0.2854
3 net_302:2 0.4464
4 net_302:3 0.2438
5 net_302:4 0.2969
6 inst_2520:B2 0.3091
7 net_302:5 0.2468
8 net_302:6 0.4002
9 net_302:7 0.3652
10 inst_2512:C2 0.1857
11 net_302:8 0.1130
12 net_302:9 0.1026
13 inst_1036:A2 0.1939
*RES
2 TAUGATE_34:Z net_302:1 0.5006
3 net_302:1 net_302:2 0.2264
4 net_302:2 net_302:3 0.3973
5 net_302:3 net_302:4 0.2044
6 net_302:4 inst_2520:B2 0.1531
7 net_302:4 net_302:5 0.0562
8 net_302:5 net_302:6 0.0882
9 net_302:6 net_302:7 0.4386
10 net_302:7 inst_2512:C2 0.2715
11 net_302:7 net_302:8 0.1095
12 net_302:8 net_302:9 0.0212
13 net_302:9 inst_1036:A2 0.1417
*END

*D_NET TAUNET_28 1.5062
*CONN
*I inst_1344:ZN O
*I TAUGATE_28:A I
*CAP
1 inst_1344:ZN 0.4826
2 TAUNET_28:1 0.4033
3 TAUNET_28:2 0.3663
4 TAUGATE_28:A 0.2540
*RES
2 inst_1344:ZN TAUNET_28:1 0.0526
3 TAUNET_28:1 TAUNET_28:2 0.2388
4 TAUNET_28:2 TAUGATE_28:A 0.1787
*END

*D_NET net_791 0.4944
*CONN
*I TAUGATE_10:Z O
*I inst_672:A3 I
*CAP
1 TAUGATE_10:Z 0.0603
2 net_791:1 0.3102
3 inst_672:A3 0.1239
*RES
2 TAUGATE_10:Z net_791:1 0.2473
3 net_791:1 inst_672:A3 0.0055
*END

*D_NET TAUNET_57 1.2459
*CONN
*I inst_811:ZN O
*I TAUGATE_57:A I
*CAP
1 inst_811:ZN 0.2412
2 TAUNET_57:1 0.4441
3 TAUNET_57:2 0.4218
4 TAUNET_57:3 0.0848
5 TAUNET_57:4 0.0266
6 TAUGATE_57:A 0.0274
*RES
2 inst_811:ZN TAUNET_57:1 0.4218
3 TAUNET_57:1 TAUNET_57:2 0.2061
4 TAUNET_57:2 TAUNET_57:3 0.2110
5 TAUNET_57:3 TAUNET_57:4 0.4583
6 TAUNET_57:4 TAUGATE_57:A 0.3985
*END

*D_NET net_2178 1.9898
*CONN
*I TAUGATE_54:Z O
*I inst_2205:A2 I
*CAP
1 TAUGATE_54:Z 0.0725
2 net_2178:1 0.3124
3 net_2178:2 0.3685
4 net_2178:3 0.4317
5 net_2178:4 0.1801
6 net_2178:5 0.2826
7 inst_2205:A2 0.3420
*RES
2 TAUGATE_54:Z net_2178:1 0.0965
3 net_2178:1 net_2178:2 0.2555
4 net_2178:2 net_2178:3 0.1304
5 net_2178:3 net_2178:4 0.3675
6 net_2178:4 net_2178:5 0.4634
7 net_2178:5 inst_2205:A2 0.2869
*END

*D_NET net_1302 0.5511
*CONN
*I TAUGATE_57:Z O
*I inst_1901:D I
*CAP
1 TAUGATE_57:Z 0.1182
2 net_1302:1 0.0608
3 inst_1901:D 0.3721
*RES
2 TAUGATE_57:Z net_1302:1 0.4648
3 net_1302:1 inst_1901:D 0.2376
*END

*D_NET net_1241 0.8353
*CONN
*I TAUGATE_39:Z O
*I inst_811:A2 I
*CAP
1 TAUGATE_39:Z 0.3081
2 net_1241:1 0.0264
3 net_1241:2 0.2502
4 inst_811:A2 0.2506
*RES
2 TAUGATE_39:Z net_1241:1 0.4486
3 net_1241:1 net_1241:2 0.0641
4 net_1241:2 inst_811:A2 0.0138
*END

*D_NET TAUNET_37 0.7959
*CONN
*I inst_400:ZN O
*I TAUGATE_37:A I
*CAP
1 inst_400:ZN 0.0204
2 TAUNET_37:1 0.1001
3 TAUNET_37:2 0.2747
4 TAUNET_37:3 0.1704
5 TAUGATE_37:A 0.2303
*RES
2 inst_400:ZN TAUNET_37:1 0.0121
3 TAUNET_37:1 TAUNET_37:2 0.0620
4 TAUNET_37:2 TAUNET_37:3 0.0267
5 TAUNET_37:3 TAUGATE_37:A 0.1278
*END

*D_NET TAUNET_32 1.5058
*CONN
*I inst_1377:ZN O
*I TAUGATE_32:A I
*CAP
1 inst_1377:ZN 0.3621
2 TAUNET_32:1 0.3490
3 TAUNET_32:2 0.4751
4 TAUGATE_32:A 0.3195
*RES
2 inst_1377:ZN TAUNET_32:1 0.4748
3 TAUNET_32:1 TAUNET_32:2 0.2505
4 TAUNET_32:2 TAUGATE_32:A 0.2036
*END

*D_NET net_1339 2.0717
*CONN
*I TAUGATE_14:Z O
*I inst_2558:B1 I
*I inst_388:A I
*CAP
1 TAUGATE_14:Z 0.0185
2 net_1339:1 0.2437
3 net_1339:2 0.3641
4 net_1339:3 0.1411
5 net_1339:4 0.2452
6 inst_388:A 0.2723
7 net_1339:5 0.0937
8 net_1339:6 0.2944
9 inst_2558:B1 0.3987
*RES
2 TAUGATE_14:Z net_1339:1 0.2079
3 net_1339:1 net_1339:2 0.2449
4 net_1339:2 net_1339:3 0.0406
5 net_1339:3 net_1339:4 0.0917
6 net_1339:4 inst_388:A 0.0078
7 net_1339:2 net_1339:5 0.0209
8 net_1339:5 net_1339:6 0.1182
9 net_1339:6 inst_2558:B1 0.1067
*END

*D_NET TAUNET_38 2.0282
*CONN
*I inst_2508:ZN O
*I TAUGATE_38:A I
*CAP
1 inst_2508:ZN 0.3672
2 TAUNET_38:1 0.1157
3 TAUNET_38:2 0.1901
4 TAUNET_38:3 0.2138
5 TAUNET_38:4 0.5008
6 TAUNET_38:5 0.2979
7 TAUGATE_38:A 0.3428
*RES
2 inst_2508:ZN TAUNET_38:1 0.2325
3 TAUNET_38:1 TAUNET_38:2 0.2733
4 TAUNET_38:2 TAUNET_38:3 0.1266
5 TAUNET_38:3 TAUNET_38:4 0.3814
6 TAUNET_38:4 TAUNET_38:5 0.1363
7 TAUNET_38:5 TAUGATE_38:A 0.3277
*END

*D_NET net_2223 1.7680
*CONN
*I TAUGATE_25:Z O
*I inst_207:A2 I
*CAP
1 TAUGATE_25:Z 0.4503
2 net_2223:1 0.1603
3 net_2223:2 0.4423
4 net_2223:3 0.1159
5 net_2223:4 0.4527
6 inst_207:A2 0.1465
*RES
2 TAUGATE_25:Z net_2223:1 0.1463
3 net_2223:1 net_2223:2 0.4621
4 net_2223:2 net_2223:3 0.4065
5 net_2223:3 net_2223:4 0.0227
6 net_2223:4 inst_207:A2 0.2236
*END

*D_NET TAUNET_40 1.0395
*CONN
*I inst_445:ZN O
*I TAUGATE_40:A I
*CAP
1 inst_445:ZN 0.0715
2 TAUNET_40:1 0.1861
3 TAUNET_40:2 0.4367
4 TAUGATE_40:A 0.3452
*RES
2 inst_445:ZN TAUNET_40:1 0.0313
3 TAUNET_40:1 TAUNET_40:2 0.1217
4 TAUNET_40:2 TAUGATE_40:A 0.0111
*END

*D_NET TAUNET_20 1.2561
*CONN
*I inst_188:ZN O
*I TAUGATE_20:A I
*CAP
1 inst_188:ZN 0.0613
2 TAUNET_20:1 0.4407
3 TAUNET_20:2 0.4978
4 TAUGATE_20:A 0.2563
*RES
2 inst_188:ZN TAUNET_20:1 0.2595
3 TAUNET_20:1 TAUNET_20:2 0.2603
4 TAUNET_20:2 TAUGATE_20:A 0.2874
*END

*D_NET x1693 1.0267
*CONN
*I TAUGATE_20:Z O
*P x1693 O
*CAP
1 TAUGATE_20:Z 0.2768
2 x1693:1 0.2053
3 x1693:2 0.2140
4 x1693 0.3306
*RES
2 TAUGATE_20:Z x1693:1 0.1569
3 x1693:1 x1693:2 0.2580
4 x1693:2 x1693 0.2138
*END

*D_NET net_822 2.1838
*CONN
*I TAUGATE_46:Z O
*I inst_454:A I
*CAP
1 TAUGATE_46:Z 0.3806
2 net_822:1 0.4608
3 net_822:2 0.4692
4 net_822:3 0.4766
5 net_822:4 0.0589
6 net_822:5 0.0962
7 inst_454:A 0.2415
*RES
2 TAUGATE_46:Z net_822:1 0.1750
3 net_822:1 net_822:2 0.4103
4 net_822:2 net_822:3 0.0845
5 net_822:3 net_822:4 0.1888
6 net_822:4 net_822:5 0.1436
7 net_822:5 inst_454:A 0.1762
*END

*D_NET TAUNET_14 0.3366
*CONN
*I inst_822:ZN O
*I TAUGATE_14:A I
*CAP
1 inst_822:ZN 0.0806
2 TAUNET_14:1 0.2069
3 TAUGATE_14:A 0.0491
*RES
2 inst_822:ZN TAUNET_14:1 0.4137
3 TAUNET_14:1 TAUGATE_14:A 0.3046
*END

*D_NET net_636 1.0479
*CONN
*I TAUGATE_55:Z O
*I inst_404:A I
*CAP
1 TAUGATE_55:Z 0.2640
2 net_636:1 0.4110
3 net_636:2 0.0191
4 inst_404:A 0.3538
*RES
2 TAUGATE_55:Z net_636:1 0.4300
3 net_636:1 net_636:2 0.3629
4 net_636:2 inst_404:A 0.0787
*END

*D_NET net_1456 2.0675
*CONN
*I TAUGATE_45:Z O
*I inst_339:A I
*CAP
1 TAUGATE_45:Z 0.2971
2 net_1456:1 0.5010
3 net_1456:2 0.3538
4 net_1456:3 0.4649
5 net_1456:4 0.0482
6 net_1456:5 0.1062
7 inst_339:A 0.2963
*RES
2 TAUGATE_45:Z net_1456:1 0.4911
3 net_1456:1 net_1456:2 0.2002
4 net_1456:2 net_1456:3 0.2573
5 net_1456:3 net_1456:4 0.3761
6 net_1456:4 net_1456:5 0.0616
7 net_1456:5 inst_339:A 0.4298
*END

*D_NET net_991 0.5116
*CONN
*I TAUGATE_37:Z O
*I inst_1770:D I
*CAP
1 TAUGATE_37:Z 0.2634
2 net_991:1 0.0745
3 inst_1770:D 0.1738
*RES
2 TAUGATE_37:Z net_991:1 0.4336
3 net_991:1 inst_1770:D 0.4556
*END

*D_NET net_2216 1.0764
*CONN
*I TAUGATE_23:Z O
*I inst_210:A2 I
*CAP
1 TAUGATE_23:Z 0.0036
2 net_2216:1 0.2737
3 net_2216:2 0.3095
4 inst_210:A2 0.4895
*RES
2 TAUGATE_23:Z net_2216:1 0.4033
3 net_2216:1 net_2216:2 0.2734
4 net_2216:2 inst_210:A2 0.3461
*END

*D_NET TAUNET_49 1.3424
*CONN
*P x7120 I
*I TAUGATE_49:A I
*CAP
1 x7120 0.0418
2 TAUNET_49:1 0.3815
3 TAUNET_49:2 0.1458
4 TAUNET_49:3 0.4915
5 TAUNET_49:4 0.0683
6 TAUGATE_49:A 0.2135
*RES
2 x7120 TAUNET_49:1 0.4484
3 TAUNET_49:1 TAUNET_49:2 0.1379
4 TAUNET_49:2 TAUNET_49:3 0.1139
5 TAUNET_49:3 TAUNET_49:4 0.0489
6 TAUNET_49:4 TAUGATE_49:A 0.0861
*END

*D_NET x7120 1.9837
*CONN
*I TAUGATE_49:Z O
*I inst_2617:A2 I
*I inst_120:SI I
*CAP
1 TAUGATE_49:Z 0.4806
2 x7120:1 0.1114
3 x7120:2 0.0198
4 x7120:3 0.2366
5 x7120:4 0.1100
6 inst_2617:A2 0.2818
7 x7120:5 0.0096
8 x7120:6 0.4963
9 inst_120:SI 0.2377
*RES
2 TAUGATE_49:Z x7120:1 0.3290
3 x7120:1 x7120:2 0.1592
4 x7120:2 x7120:3 0.4236
5 x7120:3 x7120:4 0.3328
6 x7120:4 inst_2617:A2 0.1906
7 x7120:3 x7120:5 0.2571
8 x7120:5 x7120:6 0.3610
9 x7120:6 inst_120:SI 0.0042
*END

*D_NET TAUNET_50 1.5525
*CONN
*I inst_1420:ZN O
*I TAUGATE_50:A I
*CAP
1 inst_1420:ZN 0.3841
2 TAUNET_50:1 0.2352
3 TAUNET_50:2 0.3112
4 TAUNET_50:3 0.1345
5 TAUNET_50:4 0.4134
6 TAUGATE_50:A 0.0741
*RES
2 inst_1420:ZN TAUNET_50:1 0.4290
3 TAUNET_50:1 TAUNET_50:2 0.4891
4 TAUNET_50:2 TAUNET_50:3 0.0621
5 TAUNET_50:3 TAUNET_50:4 0.2122
6 TAUNET_50:4 TAUGATE_50:A 0.2034
*END

*D_NET TAUNET_23 0.9541
*CONN
*I inst_2012:QN O
*I TAUGATE_23:A I
*CAP
1 inst_2012:QN 0.2112
2 TAUNET_23:1 0.1106
3 TAUNET_23:2 0.0283
4 TAUNET_23:3 0.2644
5 TAUGATE_23:A 0.3395
*RES
2 inst_2012:QN TAUNET_23:1 0.4160
3 TAUNET_23:1 TAUNET_23:2 0.1311
4 TAUNET_23:2 TAUNET_23:3 0.1702
5 TAUNET_23:3 TAUGATE_23:A 0.0535
*END

*D_NET TAUNET_39 1.0831
*CONN
*I inst_852:ZN O
*I TAUGATE_39:A I
*CAP
1 inst_852:ZN 0.2939
2 TAUNET_39:1 0.0520
3 TAUNET_39:2 0.1787
4 TAUNET_39:3 0.3277
5 TAUGATE_39:A 0.2308
*RES
2 inst_852:ZN TAUNET_39:1 0.1825
3 TAUNET_39:1 TAUNET_39:2 0.4154
4 TAUNET_39:2 TAUNET_39:3 0.4205
5 TAUNET_39:3 TAUGATE_39:A 0.1921
*END

*D_NET x2886 1.3427
*CONN
*I TAUGATE_30:Z O
*P x2886 O
*CAP
1 TAUGATE_30:Z 0.0500
2 x2886:1 0.2552
3 x2886:2 0.2397
4 x2886:3 0.3943
5 x2886:4 0.0450
6 x2886 0.3586
*RES
2 TAUGATE_30:Z x2886:1 0.1804
3 x2886:1 x2886:2 0.2132
4 x2886:2 x2886:3 0.3448
5 x2886:3 x2886:4 0.2539
6 x2886:4 x2886 0.0169
*END

*D_NET TAUNET_51 0.6350
*CONN
*I inst_2645:ZN O
*I TAUGATE_51:A I
*CAP
1 inst_2645:ZN 0.3418
2 TAUNET_51:1 0.2232
3 TAUGATE_51:A 0.0700
*RES
2 inst_2645:ZN TAUNET_51:1 0.3825
3 TAUNET_51:1 TAUGATE_51:A 0.4916
*END

*D_NET net_78 2.4072
*CONN
*I TAUGATE_21:Z O
*I inst_51:D I
*I inst_2328:B2 I
*I inst_486:A1 I
*I inst_2531:B2 I
*CAP
1 TAUGATE_21:Z 0.0722
2 net_78:1 0.0274
3 inst_51:D 0.0955
4 net_78:2 0.2720
5 net_78:3 0.0605
6 inst_2328:B2 0.1555
7 net_78:4 0.2983
8 net_78:5 0.4269
9 net_78:6 0.0493
10 net_78:7 0.0341
11 inst_486:A1 0.3020
12 net_78:8 0.2956
13 net_78:9 0.2210
14 inst_2531:B2 0.0970
*RES
2 TAUGATE_21:Z net_78:1 0.0758
3 net_78:1 inst_51:D 0.0730
4 net_78:1 net_78:2 0.4347
5 net_78:2 net_78:3 0.2976
6 net_78:3 inst_2328:B2 0.3531
7 net_78:2 net_78:4 0.3389
8 net_78:4 net_78:5 0.4000
9 net_78:5 net_78:6 0.0188
10 net_78:6 net_78:7 0.4709
11 net_78:7 inst_486:A1 0.4204
12 net_78:4 net_78:8 0.2798
13 net_78:8 net_78:9 0.3150
14 net_78:9 inst_2531:B2 0.0137
*END

*D_NET TAUNET_19 0.8876
*CONN
*I inst_919:ZN O
*I TAUGATE_19:A I
*CAP
1 inst_919:ZN 0.3101
2 TAUNET_19:1 0.2047
3 TAUGATE_19:A 0.3729
*RES
2 inst_919:ZN TAUNET_19:1 0.0610
3 TAUNET_19:1 TAUGATE_19:A 0.4010
*END

*D_NET TAUNET_34 1.9020
*CONN
*I inst_1619:ZN O
*I TAUGATE_34:A I
*CAP
1 inst_1619:ZN 0.3768
2 TAUNET_34:1 0.1250
3 TAUNET_34:2 0.3526
4 TAUNET_34:3 0.3715
5 TAUNET_34:4 0.3144
6 TAUGATE_34:A 0.3618
*RES
2 inst_1619:ZN TAUNET_34:1 0.0820
3 TAUNET_34:1 TAUNET_34:2 0.2174
4 TAUNET_34:2 TAUNET_34:3 0.3638
5 TAUNET_34:3 TAUNET_34:4 0.4097
6 TAUNET_34:4 TAUGATE_34:A 0.2418
*END

*D_NET TAUNET_54 1.6988
*CONN
*I inst_5:Z O
*I TAUGATE_54:A I
*CAP
1 inst_5:Z 0.3118
2 TAUNET_54:1 0.3134
3 TAUNET_54:2 0.4059
4 TAUNET_54:3 0.1396
5 TAUNET_54:4 0.0910
6 TAUNET_54:5 0.1278
7 TAUGATE_54:A 0.3093
*RES
2 inst_5:Z TAUNET_54:1 0.3342
3 TAUNET_54:1 TAUNET_54:2 0.2150
4 TAUNET_54:2 TAUNET_54:3 0.0109
5 TAUNET_54:3 TAUNET_54:4 0.1830
6 TAUNET_54:4 TAUNET_54:5 0.2298
7 TAUNET_54:5 TAUGATE_54:A 0.0712
*END

*D_NET net_2079 0.3053
*CONN
*I TAUGATE_28:Z O
*I inst_41:A I
*CAP
1 TAUGATE_28:Z 0.1986
2 net_2079:1 0.0521
3 inst_41:A 0.0546
*RES
2 TAUGATE_28:Z net_2079:1 0.0043
3 net_2079:1 inst_41:A 0.2737
*END

*D_NET TAUNET_44 1.2711
*CONN
*I inst_261:ZN O
*I TAUGATE_44:A I
*CAP
1 inst_261:ZN 0.2677
2 TAUNET_44:1 0.1466
3 TAUNET_44:2 0.2784
4 TAUNET_44:3 0.2008
5 TAUGATE_44:A 0.3776
*RES
2 inst_261:ZN TAUNET_44:1 0.2937
3 TAUNET_44:1 TAUNET_44:2 0.0093
4 TAUNET_44:2 TAUNET_44:3 0.2822
5 TAUNET_44:3 TAUGATE_44:A 0.4311
*END

*D_NET net_344 1.6512
*CONN
*I TAUGATE_13:Z O
*I inst_2433:A2 I
*CAP
1 TAUGATE_13:Z 0.1138
2 net_344:1 0.3567
3 net_344:2 0.3242
4 net_344:3 0.2336
5 net_344:4 0.3863
6 inst_2433:A2 0.2365
*RES
2 TAUGATE_13:Z net_344:1 0.1037
3 net_344:1 net_344:2 0.3572
4 net_344:2 net_344:3 0.2211
5 net_344:3 net_344:4 0.2185
6 net_344:4 inst_2433:A2 0.2266
*END

*D_NET TAUNET_43 1.9002
*CONN
*I inst_2553:ZN O
*I TAUGATE_43:A I
*CAP
1 inst_2553:ZN 0.1297
2 TAUNET_43:1 0.2417
3 TAUNET_43:2 0.2444
4 TAUNET_43:3 0.4262
5 TAUNET_43:4 0.3737
6 TAUNET_43:5 0.3015
7 TAUGATE_43:A 0.1830
*RES
2 inst_2553:ZN TAUNET_43:1 0.3035
3 TAUNET_43:1 TAUNET_43:2 0.4053
4 TAUNET_43:2 TAUNET_43:3 0.0863
5 TAUNET_43:3 TAUNET_43:4 0.2362
6 TAUNET_43:4 TAUNET_43:5 0.1365
7 TAUNET_43:5 TAUGATE_43:A 0.0277
*END

*D_NET x108 0.8486
*CONN
*I TAUGATE_27:Z O
*P x108 O
*CAP
1 TAUGATE_27:Z 0.2912
2 x108:1 0.3711
3 x108:2 0.0512
4 x108 0.1351
*RES
2 TAUGATE_27:Z x108:1 0.0984
3 x108:1 x108:2 0.0368
4 x108:2 x108 0.4376
*END

*D_NET TAUNET_56 1.3959
*CONN
*I inst_179:ZN O
*I TAUGATE_56:A I
*CAP
1 inst_179:ZN 0.1283
2 TAUNET_56:1 0.3234
3 TAUNET_56:2 0.4610
4 TAUGATE_56:A 0.4832
*RES
2 inst_179:ZN TAUNET_56:1 0.2776
3 TAUNET_56:1 TAUNET_56:2 0.3781
4 TAUNET_56:2 TAUGATE_56:A 0.3766
*END

*D_NET TAUNET_55 1.4006
*CONN
*I inst_2385:ZN O
*I TAUGATE_55:A I
*CAP
1 inst_2385:ZN 0.3877
2 TAUNET_55:1 0.3738
3 TAUNET_55:2 0.4556
4 TAUGATE_55:A 0.1835
*RES
2 inst_2385:ZN TAUNET_55:1 0.0020
3 TAUNET_55:1 TAUNET_55:2 0.2614
4 TAUNET_55:2 TAUGATE_55:A 0.3010
*END

*D_NET TAUNET_11 1.0435
*CONN
*I inst_543:ZN O
*I TAUGATE_11:A I
*CAP
1 inst_543:ZN 0.4372
2 TAUNET_11:1 0.1153
3 TAUNET_11:2 0.3810
4 TAUGATE_11:A 0.1100
*RES
2 inst_543:ZN TAUNET_11:1 0.1662
3 TAUNET_11:1 TAUNET_11:2 0.3178
4 TAUNET_11:2 TAUGATE_11:A 0.2541
*END

*D_NET TAUNET_33 1.5558
*CONN
*P x3365 I
*I TAUGATE_33:A I
*CAP
1 x3365 0.4625
2 TAUNET_33:1 0.0981
3 TAUNET_33:2 0.3461
4 TAUNET_33:3 0.2382
5 TAUGATE_33:A 0.4109
*RES
2 x3365 TAUNET_33:1 0.0945
3 TAUNET_33:1 TAUNET_33:2 0.2326
4 TAUNET_33:2 TAUNET_33:3 0.0121
5 TAUNET_33:3 TAUGATE_33:A 0.2674
*END

*D_NET TAUNET_22 1.0180
*CONN
*I inst_36:ZN O
*I TAUGATE_22:A I
*CAP
1 inst_36:ZN 0.0414
2 TAUNET_22:1 0.1970
3 TAUNET_22:2 0.0138
4 TAUNET_22:3 0.4527
5 TAUGATE_22:A 0.3131
*RES
2 inst_36:ZN TAUNET_22:1 0.4392
3 TAUNET_22:1 TAUNET_22:2 0.4048
4 TAUNET_22:2 TAUNET_22:3 0.0368
5 TAUNET_22:3 TAUGATE_22:A 0.3283
*END

*D_NET TAUNET_41 1.5830
*CONN
*I inst_2533:ZN O
*I TAUGATE_41:A I
*CAP
1 inst_2533:ZN 0.4199
2 TAUNET_41:1 0.3306
3 TAUNET_41:2 0.3042
4 TAUNET_41:3 0.1317
5 TAUNET_41:4 0.1481
6 TAUGATE_41:A 0.2485
*RES
2 inst_2533:ZN TAUNET_41:1 0.2201
3 TAUNET_41:1 TAUNET_41:2 0.2966
4 TAUNET_41:2 TAUNET_41:3 0.3013
5 TAUNET_41:3 TAUNET_41:4 0.0758
6 TAUNET_41:4 TAUGATE_41:A 0.0262
*END

*D_NET TAUNET_30 0.4260
*CONN
*I inst_912:ZN O
*I TAUGATE_30:A I
*CAP
1 inst_912:ZN 0.0656
2 TAUNET_30:1 0.0047
3 TAUNET_30:2 0.1418
4 TAUGATE_30:A 0.2138
*RES
2 inst_912:ZN TAUNET_30:1 0.3805
3 TAUNET_30:1 TAUNET_30:2 0.2523
4 TAUNET_30:2 TAUGATE_30:A 0.0497
*END

*D_NET net_2384 2.3755
*CONN
*I TAUGATE_59:Z O
*I inst_2588:A1 I
*I inst_1557:A I
*CAP
1 TAUGATE_59:Z 0.3913
2 net_2384:1 0.3201
3 net_2384:2 0.0320
4 net_2384:3 0.2786
5 inst_1557:A 0.3378
6 net_2384:4 0.2701
7 net_2384:5 0.3351
8 inst_2588:A1 0.4105
*RES
2 TAUGATE_59:Z net_2384:1 0.4364
3 net_2384:1 net_2384:2 0.2454
4 net_2384:2 net_2384:3 0.4527
5 net_2384:3 inst_1557:A 0.2663
6 net_2384:3 net_2384:4 0.3004
7 net_2384:4 net_2384:5 0.3665
8 net_2384:5 inst_2588:A1 0.1341
*END

*D_NET TAUNET_58 0.7589
*CONN
*P x5181 I
*I TAUGATE_58:A I
*CAP
1 x5181 0.1706
2 TAUNET_58:1 0.0751
3 TAUNET_58:2 0.1227
4 TAUNET_58:3 0.0294
5 TAUNET_58:4 0.0059
6 TAUGATE_58:A 0.3552
*RES
2 x5181 TAUNET_58:1 0.3839
3 TAUNET_58:1 TAUNET_58:2 0.1840
4 TAUNET_58:2 TAUNET_58:3 0.4010
5 TAUNET_58:3 TAUNET_58:4 0.3573
6 TAUNET_58:4 TAUGATE_58:A 0.4559
*END

*D_NET net_2373 1.8802
*CONN
*I TAUGATE_17:Z O
*I inst_355:B2 I
*CAP
1 TAUGATE_17:Z 0.1715
2 net_2373:1 0.3594
3 net_2373:2 0.4902
4 net_2373:3 0.4716
5 net_2373:4 0.2112
6 inst_355:B2 0.1762
*RES
2 TAUGATE_17:Z net_2373:1 0.1166
3 net_2373:1 net_2373:2 0.1660
4 net_2373:2 net_2373:3 0.2177
5 net_2373:3 net_2373:4 0.2908
6 net_2373:4 inst_355:B2 0.3318
*END

*D_NET net_1040 1.3234
*CONN
*I TAUGATE_24:Z O
*I inst_1982:D I
*CAP
1 TAUGATE_24:Z 0.4080
2 net_1040:1 0.1932
3 net_1040:2 0.0675
4 net_1040:3 0.0053
5 net_1040:4 0.1459
6 net_1040:5 0.0437
7 inst_1982:D 0.4598
*RES
2 TAUGATE_24:Z net_1040:1 0.3838
3 net_1040:1 net_1040:2 0.2033
4 net_1040:2 net_1040:3 0.3263
5 net_1040:3 net_1040:4 0.4574
6 net_1040:4 net_1040:5 0.4683
7 net_1040:5 inst_1982:D 0.1543
*END

*D_NET net_1710 1.8258
*CONN
*I TAUGATE_42:Z O
*I inst_898:A1 I
*CAP
1 TAUGATE_42:Z 0.1669
2 net_1710:1 0.4518
3 net_1710:2 0.0570
4 net_1710:3 0.4909
5 net_1710:4 0.0572
6 net_1710:5 0.5008
7 inst_898:A1 0.1013
*RES
2 TAUGATE_42:Z net_1710:1 0.2457
3 net_1710:1 net_1710:2 0.4210
4 net_1710:2 net_1710:3 0.2594
5 net_1710:3 net_1710:4 0.3565
6 net_1710:4 net_1710:5 0.4074
7 net_1710:5 inst_898:A1 0.4309
*END

*D_NET net_1759 1.6029
*CONN
*I TAUGATE_43:Z O
*I inst_375:A I
*CAP
1 TAUGATE_43:Z 0.2931
2 net_1759:1 0.2246
3 net_1759:2 0.3320
4 net_1759:3 0.3870
5 inst_375:A 0.3663
*RES
2 TAUGATE_43:Z net_1759:1 0.1512
3 net_1759:1 net_1759:2 0.1368
4 net_1759:2 net_1759:3 0.4493
5 net_1759:3 inst_375:A 0.4663
*END

*D_NET TAUNET_52 1.5003
*CONN
*I inst_767:ZN O
*I TAUGATE_52:A I
*CAP
1 inst_767:ZN 0.1873
2 TAUNET_52:1 0.3589
3 TAUNET_52:2 0.4697
4 TAUGATE_52:A 0.4844
*RES
2 inst_767:ZN TAUNET_52:1 0.0401
3 TAUNET_52:1 TAUNET_52:2 0.2861
4 TAUNET_52:2 TAUGATE_52:A 0.1883
*END

*D_NET TAUNET_59 1.2973
*CONN
*I inst_1767:QN O
*I TAUGATE_59:A I
*CAP
1 inst_1767:QN 0.0604
2 TAUNET_59:1 0.2921
3 TAUNET_59:2 0.4162
4 TAUNET_59:3 0.1285
5 TAUNET_59:4 0.0491
6 TAUGATE_59:A 0.3511
*RES
2 inst_1767:QN TAUNET_59:1 0.2111
3 TAUNET_59:1 TAUNET_59:2 0.3010
4 TAUNET_59:2 TAUNET_59:3 0.1515
5 TAUNET_59:3 TAUNET_59:4 0.0492
6 TAUNET_59:4 TAUGATE_59:A 0.2707
*END

*D_NET TAUNET_48 0.7974
*CONN
*I inst_215:ZN O
*I TAUGATE_48:A I
*CAP
1 inst_215:ZN 0.2365
2 TAUNET_48:1 0.2080
3 TAUGATE_48:A 0.3529
*RES
2 inst_215:ZN TAUNET_48:1 0.4886
3 TAUNET_48:1 TAUGATE_48:A 0.3648
*END

*D_NET TAUNET_42 1.5829
*CONN
*I inst_2281:ZN O
*I TAUGATE_42:A I
*CAP
1 inst_2281:ZN 0.3187
2 TAUNET_42:1 0.0224
3 TAUNET_42:2 0.4026
4 TAUNET_42:3 0.2784
5 TAUNET_42:4 0.1803
6 TAUNET_42:5 0.0882
7 TAUGATE_42:A 0.2924
*RES
2 inst_2281:ZN TAUNET_42:1 0.4780
3 TAUNET_42:1 TAUNET_42:2 0.3510
4 TAUNET_42:2 TAUNET_42:3 0.1182
5 TAUNET_42:3 TAUNET_42:4 0.2614
6 TAUNET_42:4 TAUNET_42:5 0.1530
7 TAUNET_42:5 TAUGATE_42:A 0.2582
*END

*D_NET x2722 1.1301
*CONN
*I TAUGATE_32:Z O
*P x2722 O
*CAP
1 TAUGATE_32:Z 0.0762
2 x2722:1 0.3922
3 x2722:2 0.3950
4 x2722 0.2666
*RES
2 TAUGATE_32:Z x2722:1 0.4255
3 x2722:1 x2722:2 0.4671
4 x2722:2 x2722 0.2972
*END

*D_NET TAUNET_18 2.1171
*CONN
*I inst_1773:QN O
*I TAUGATE_18:A I
*CAP
1 inst_1773:QN 0.4880
2 TAUNET_18:1 0.3167
3 TAUNET_18:2 0.3376
4 TAUNET_18:3 0.1073
5 TAUNET_18:4 0.3579
6 TAUNET_18:5 0.1300
7 TAUGATE_18:A 0.3795
*RES
2 inst_1773:QN TAUNET_18:1 0.2362
3 TAUNET_18:1 TAUNET_18:2 0.1908
4 TAUNET_18:2 TAUNET_18:3 0.1996
5 TAUNET_18:3 TAUNET_18:4 0.3123
6 TAUNET_18:4 TAUNET_18:5 0.1251
7 TAUNET_18:5 TAUGATE_18:A 0.0048
*END

*D_NET TAUNET_45 0.7154
*CONN
*I inst_2224:ZN O
*I TAUGATE_45:A I
*CAP
1 inst_2224:ZN 0.0195
2 TAUNET_45:1 0.3700
3 TAUGATE_45:A 0.3260
*RES
2 inst_2224:ZN TAUNET_45:1 0.3466
3 TAUNET_45:1 TAUGATE_45:A 0.4948
*END

*D_NET TAUNET_21 0.7773
*CONN
*I inst_51:Q O
*I TAUGATE_21:A I
*CAP
1 inst_51:Q 0.1954
2 TAUNET_21:1 0.4904
3 TAUGATE_21:A 0.0915
*RES
2 inst_51:Q TAUNET_21:1 0.4619
3 TAUNET_21:1 TAUGATE_21:A 0.1065
*END

*D_NET x854 0.7741
*CONN
*I TAUGATE_16:Z O
*P x854 O
*CAP
1 TAUGATE_16:Z 0.2576
2 x854:1 0.2231
3 x854 0.2934
*RES
2 TAUGATE_16:Z x854:1 0.0661
3 x854:1 x854 0.0281
*END

*D_NET net_1495 0.7745
*CONN
*I TAUGATE_47:Z O
*I inst_1732:D I
*CAP
1 TAUGATE_47:Z 0.2539
2 net_1495:1 0.1980
3 inst_1732:D 0.3226
*RES
2 TAUGATE_47:Z net_1495:1 0.1282
3 net_1495:1 inst_1732:D 0.2766
*END

*D_NET net_521 2.4916
*CONN
*I TAUGATE_26:Z O
*I inst_2053:D I
*CAP
1 TAUGATE_26:Z 0.4267
2 net_521:1 0.3295
3 net_521:2 0.4724
4 net_521:3 0.4631
5 net_521:4 0.0407
6 net_521:5 0.4130
7 inst_2053:D 0.3462
*RES
2 TAUGATE_26:Z net_521:1 0.0714
3 net_521:1 net_521:2 0.2110
4 net_521:2 net_521:3 0.2588
5 net_521:3 net_521:4 0.0339
6 net_521:4 net_521:5 0.0519
7 net_521:5 inst_2053:D 0.4874
*END

*D_NET net_2141 3.5205
*CONN
*I TAUGATE_29:Z O
*I inst_2306:A2 I
*I inst_2211:B2 I
*I inst_2416:B2 I
*CAP
1 TAUGATE_29:Z 0.2489
2 net_2141:1 0.0346
3 net_2141:2 0.4333
4 net_2141:3 0.0645
5 inst_2306:A2 0.3416
6 net_2141:4 0.2746
7 net_2141:5 0.4228
8 inst_2211:B2 0.1417
9 net_2141:6 0.4926
10 net_2141:7 0.0580
11 net_2141:8 0.3810
12 net_2141:9 0.2195
13 net_2141:10 0.2042
14 inst_2416:B2 0.2030
*RES
2 TAUGATE_29:Z net_2141:1 0.4099
3 net_2141:1 net_2141:2 0.1540
4 net_2141:2 net_2141:3 0.0325
5 net_2141:3 inst_2306:A2 0.0924
6 net_2141:1 net_2141:4 0.3754
7 net_2141:4 net_2141:5 0.2016
8 net_2141:5 inst_2211:B2 0.0068
9 net_2141:3 net_2141:6 0.2656
10 net_2141:6 net_2141:7 0.4413
11 net_2141:7 net_2141:8 0.1336
12 net_2141:8 net_2141:9 0.4042
13 net_2141:9 net_2141:10 0.0451
14 net_2141:10 inst_2416:B2 0.2391
*END

*D_NET TAUNET_29 0.9045
*CONN
*I inst_1976:Q O
*I TAUGATE_29:A I
*CAP
1 inst_1976:Q 0.4146
2 TAUNET_29:1 0.2654
3 TAUGATE_29:A 0.2245
*RES
2 inst_1976:Q TAUNET_29:1 0.4797
3 TAUNET_29:1 TAUGATE_29:A 0.0551
*END

*D_NET net_546 1.5272
*CONN
*I TAUGATE_22:Z O
*I inst_2048:D I
*CAP
1 TAUGATE_22:Z 0.0973
2 net_546:1 0.1903
3 net_546:2 0.2143
4 net_546:3 0.0701
5 net_546:4 0.2421
6 net_546:5 0.4634
7 inst_2048:D 0.2497
*RES
2 TAUGATE_22:Z net_546:1 0.2766
3 net_546:1 net_546:2 0.3086
4 net_546:2 net_546:3 0.2353
5 net_546:3 net_546:4 0.4838
6 net_546:4 net_546:5 0.0722
7 net_546:5 inst_2048:D 0.3539
*END

*D_NET TAUNET_15 1.2346
*CONN
*I inst_1040:ZN O
*I TAUGATE_15:A I
*CAP
1 inst_1040:ZN 0.0192
2 TAUNET_15:1 0.4054
3 TAUNET_15:2 0.3681
4 TAUGATE_15:A 0.4419
*RES
2 inst_1040:ZN TAUNET_15:1 0.1561
3 TAUNET_15:1 TAUNET_15:2 0.1347
4 TAUNET_15:2 TAUGATE_15:A 0.0224
*END

*D_NET TAUNET_17 1.9103
*CONN
*I inst_2060:QN O
*I TAUGATE_17:A I
*CAP
1 inst_2060:QN 0.2244
2 TAUNET_17:1 0.1374
3 TAUNET_17:2 0.1713
4 TAUNET_17:3 0.2153
5 TAUNET_17:4 0.3119
6 TAUNET_17:5 0.4918
7 TAUGATE_17:A 0.3583
*RES
2 inst_2060:QN TAUNET_17:1 0.0251