*SPEF "IEEE 1481-1998"
*DESIGN "changes"
*DATE "Mon Jan 05 14:31:58 2015"
*VENDOR "TAU 2015 Contest"
*PROGRAM "Benchmark Parasitic Generator"
*VERSION "0.0"
*DESIGN_FLOW "NETLIST_TYPE_VERILOG"
*DIVIDER /
*DELIMITER :
*BUS_DELIMITER [ ]
*T_UNIT 1 PS
*C_UNIT 1 FF
*R_UNIT 1 KOHM
*L_UNIT 1 UH

*D_NET TAUNET_2001 1.7439
*CONN
*I inst_1712:CO O
*I TAUGATE_2001:A I
*CAP
1 inst_1712:CO 0.2611
2 TAUNET_2001:1 0.4098
3 TAUNET_2001:2 0.5009
4 TAUNET_2001:3 0.2843
5 TAUGATE_2001:A 0.2878
*RES
2 inst_1712:CO TAUNET_2001:1 0.1659
3 TAUNET_2001:1 TAUNET_2001:2 0.2742
4 TAUNET_2001:2 TAUNET_2001:3 0.3494
5 TAUNET_2001:3 TAUGATE_2001:A 0.1485
*END

*D_NET TAUNET_2749 1.3760
*CONN
*I inst_1559:ZN O
*I TAUGATE_2749:A I
*CAP
1 inst_1559:ZN 0.2110
2 TAUNET_2749:1 0.3070
3 TAUNET_2749:2 0.3583
4 TAUNET_2749:3 0.1395
5 TAUNET_2749:4 0.0646
6 TAUNET_2749:5 0.0794
7 TAUGATE_2749:A 0.2161
*RES
2 inst_1559:ZN TAUNET_2749:1 0.1614
3 TAUNET_2749:1 TAUNET_2749:2 0.3312
4 TAUNET_2749:2 TAUNET_2749:3 0.3755
5 TAUNET_2749:3 TAUNET_2749:4 0.4644
6 TAUNET_2749:4 TAUNET_2749:5 0.4559
7 TAUNET_2749:5 TAUGATE_2749:A 0.4050
*END

*D_NET net_1317 0.4849
*CONN
*I TAUGATE_1361:Z O
*I inst_1913:D I
*CAP
1 TAUGATE_1361:Z 0.1670
2 net_1317:1 0.2440
3 net_1317:2 0.0332
4 inst_1913:D 0.0406
*RES
2 TAUGATE_1361:Z net_1317:1 0.2732
3 net_1317:1 net_1317:2 0.0073
4 net_1317:2 inst_1913:D 0.1308
*END

*D_NET TAUNET_1032 1.8161
*CONN
*I inst_1442:ZN O
*I TAUGATE_1032:A I
*CAP
1 inst_1442:ZN 0.2909
2 TAUNET_1032:1 0.0740
3 TAUNET_1032:2 0.4871
4 TAUNET_1032:3 0.4951
5 TAUNET_1032:4 0.4125
6 TAUGATE_1032:A 0.0565
*RES
2 inst_1442:ZN TAUNET_1032:1 0.1285
3 TAUNET_1032:1 TAUNET_1032:2 0.0292
4 TAUNET_1032:2 TAUNET_1032:3 0.2926
5 TAUNET_1032:3 TAUNET_1032:4 0.4507
6 TAUNET_1032:4 TAUGATE_1032:A 0.3356
*END

*D_NET net_215 1.9602
*CONN
*I TAUGATE_2058:Z O
*I inst_205:B2 I
*CAP
1 TAUGATE_2058:Z 0.3845
2 net_215:1 0.3056
3 net_215:2 0.3464
4 net_215:3 0.0305
5 net_215:4 0.2383
6 net_215:5 0.4020
7 inst_205:B2 0.2529
*RES
2 TAUGATE_2058:Z net_215:1 0.2665
3 net_215:1 net_215:2 0.4354
4 net_215:2 net_215:3 0.1977
5 net_215:3 net_215:4 0.0788
6 net_215:4 net_215:5 0.3276
7 net_215:5 inst_205:B2 0.3833
*END

*D_NET net_416 0.8670
*CONN
*I TAUGATE_297:Z O
*I inst_645:A1 I
*CAP
1 TAUGATE_297:Z 0.0716
2 net_416:1 0.1922
3 net_416:2 0.2805
4 net_416:3 0.1322
5 inst_645:A1 0.1905
*RES
2 TAUGATE_297:Z net_416:1 0.4017
3 net_416:1 net_416:2 0.4680
4 net_416:2 net_416:3 0.2976
5 net_416:3 inst_645:A1 0.2331
*END

*D_NET net_2394 1.3358
*CONN
*I TAUGATE_1482:Z O
*I inst_2439:B2 I
*CAP
1 TAUGATE_1482:Z 0.3943
2 net_2394:1 0.1955
3 net_2394:2 0.1868
4 net_2394:3 0.4889
5 inst_2439:B2 0.0703
*RES
2 TAUGATE_1482:Z net_2394:1 0.3298
3 net_2394:1 net_2394:2 0.4131
4 net_2394:2 net_2394:3 0.3310
5 net_2394:3 inst_2439:B2 0.2621
*END

*D_NET x971 0.9833
*CONN
*I TAUGATE_610:Z O
*P x971 O
*CAP
1 TAUGATE_610:Z 0.1808
2 x971:1 0.3990
3 x971 0.4035
*RES
2 TAUGATE_610:Z x971:1 0.0219
3 x971:1 x971 0.0830
*END

*D_NET net_2418 7.3744
*CONN
*I TAUGATE_2471:Z O
*I inst_2594:A1 I
*I inst_1093:A1 I
*I inst_1510:A I
*I inst_2580:A2 I
*I inst_447:B2 I
*I inst_2569:A3 I
*I inst_761:A2 I
*CAP
1 TAUGATE_2471:Z 0.1250
2 net_2418:1 0.4976
3 net_2418:2 0.3591
4 net_2418:3 0.2780
5 net_2418:4 0.2022
6 inst_761:A2 0.1593
7 net_2418:5 0.0632
8 net_2418:6 0.2503
9 net_2418:7 0.4700
10 net_2418:8 0.3789
11 net_2418:9 0.3545
12 inst_1093:A1 0.1033
13 net_2418:10 0.2597
14 net_2418:11 0.1267
15 net_2418:12 0.3840
16 net_2418:13 0.2434
17 inst_1510:A 0.3726
18 net_2418:14 0.3022
19 net_2418:15 0.1405
20 inst_2580:A2 0.0668
21 net_2418:16 0.3089
22 inst_447:B2 0.0253
23 net_2418:17 0.3147
24 net_2418:18 0.2761
25 inst_2569:A3 0.3643
26 net_2418:19 0.2731
27 net_2418:20 0.1525
28 net_2418:21 0.0518
29 net_2418:22 0.2548
30 inst_2594:A1 0.2154
*RES
2 TAUGATE_2471:Z net_2418:1 0.4382
3 net_2418:1 net_2418:2 0.3498
4 net_2418:2 net_2418:3 0.4055
5 net_2418:3 net_2418:4 0.4519
6 net_2418:4 inst_761:A2 0.4658
7 net_2418:4 net_2418:5 0.4316
8 net_2418:5 net_2418:6 0.1782
9 net_2418:6 net_2418:7 0.4734
10 net_2418:7 net_2418:8 0.0376
11 net_2418:8 net_2418:9 0.0972
12 net_2418:9 inst_1093:A1 0.3594
13 net_2418:1 net_2418:10 0.2980
14 net_2418:10 net_2418:11 0.2454
15 net_2418:11 net_2418:12 0.4670
16 net_2418:12 net_2418:13 0.1921
17 net_2418:13 inst_1510:A 0.1376
18 net_2418:13 net_2418:14 0.3699
19 net_2418:14 net_2418:15 0.4131
20 net_2418:15 inst_2580:A2 0.4004
21 net_2418:13 net_2418:16 0.3105
22 net_2418:16 inst_447:B2 0.1881
23 net_2418:7 net_2418:17 0.2288
24 net_2418:17 net_2418:18 0.0666
25 net_2418:18 inst_2569:A3 0.3854
26 net_2418:14 net_2418:19 0.4921
27 net_2418:19 net_2418:20 0.1648
28 net_2418:20 net_2418:21 0.1855
29 net_2418:21 net_2418:22 0.0112
30 net_2418:22 inst_2594:A1 0.3530
*END

*D_NET TAUNET_1639 0.7963
*CONN
*I inst_1020:ZN O
*I TAUGATE_1639:A I
*CAP
1 inst_1020:ZN 0.2239
2 TAUNET_1639:1 0.4230
3 TAUGATE_1639:A 0.1494
*RES
2 inst_1020:ZN TAUNET_1639:1 0.3290
3 TAUNET_1639:1 TAUGATE_1639:A 0.1620
*END

*D_NET net_1382 1.1549
*CONN
*I TAUGATE_1041:Z O
*I inst_370:A I
*CAP
1 TAUGATE_1041:Z 0.2883
2 net_1382:1 0.4381
3 net_1382:2 0.3484
4 inst_370:A 0.0801
*RES
2 TAUGATE_1041:Z net_1382:1 0.1392
3 net_1382:1 net_1382:2 0.1891
4 net_1382:2 inst_370:A 0.0464
*END

*D_NET net_943 1.0649
*CONN
*I TAUGATE_1774:Z O
*I inst_2117:D I
*CAP
1 TAUGATE_1774:Z 0.0279
2 net_943:1 0.0649
3 net_943:2 0.0510
4 net_943:3 0.1600
5 net_943:4 0.1748
6 net_943:5 0.4787
7 inst_2117:D 0.1076
*RES
2 TAUGATE_1774:Z net_943:1 0.4606
3 net_943:1 net_943:2 0.3388
4 net_943:2 net_943:3 0.4657
5 net_943:3 net_943:4 0.3595
6 net_943:4 net_943:5 0.2471
7 net_943:5 inst_2117:D 0.0832
*END

*D_NET TAUNET_2260 0.8209
*CONN
*I inst_1233:ZN O
*I TAUGATE_2260:A I
*CAP
1 inst_1233:ZN 0.3736
2 TAUNET_2260:1 0.3644
3 TAUGATE_2260:A 0.0829
*RES
2 inst_1233:ZN TAUNET_2260:1 0.1977
3 TAUNET_2260:1 TAUGATE_2260:A 0.4694
*END

*D_NET net_1897 2.0853
*CONN
*I TAUGATE_347:Z O
*I inst_695:A1 I
*CAP
1 TAUGATE_347:Z 0.3882
2 net_1897:1 0.0413
3 net_1897:2 0.4651
4 net_1897:3 0.4065
5 net_1897:4 0.3164
6 net_1897:5 0.3513
7 inst_695:A1 0.1165
*RES
2 TAUGATE_347:Z net_1897:1 0.0986
3 net_1897:1 net_1897:2 0.2243
4 net_1897:2 net_1897:3 0.1286
5 net_1897:3 net_1897:4 0.4269
6 net_1897:4 net_1897:5 0.2482
7 net_1897:5 inst_695:A1 0.2195
*END

*D_NET net_980 1.7569
*CONN
*I TAUGATE_2584:Z O
*I inst_911:A1 I
*CAP
1 TAUGATE_2584:Z 0.4091
2 net_980:1 0.3587
3 net_980:2 0.1869
4 net_980:3 0.4974
5 inst_911:A1 0.3047
*RES
2 TAUGATE_2584:Z net_980:1 0.1200
3 net_980:1 net_980:2 0.4969
4 net_980:2 net_980:3 0.1210
5 net_980:3 inst_911:A1 0.1733
*END

*D_NET TAUNET_1856 1.1896
*CONN
*P x5118 I
*I TAUGATE_1856:A I
*CAP
1 x5118 0.0283
2 TAUNET_1856:1 0.2945
3 TAUNET_1856:2 0.3177
4 TAUNET_1856:3 0.2101
5 TAUGATE_1856:A 0.3390
*RES
2 x5118 TAUNET_1856:1 0.2046
3 TAUNET_1856:1 TAUNET_1856:2 0.3404
4 TAUNET_1856:2 TAUNET_1856:3 0.1317
5 TAUNET_1856:3 TAUGATE_1856:A 0.3617
*END

*D_NET TAUNET_1352 1.2055
*CONN
*I TAUGATE_26:Z O
*I TAUGATE_1352:A I
*CAP
1 TAUGATE_26:Z 0.3629
2 TAUNET_1352:1 0.3900
3 TAUNET_1352:2 0.0557
4 TAUNET_1352:3 0.1253
5 TAUGATE_1352:A 0.2716
*RES
2 TAUGATE_26:Z TAUNET_1352:1 0.3735
3 TAUNET_1352:1 TAUNET_1352:2 0.1079
4 TAUNET_1352:2 TAUNET_1352:3 0.3323
5 TAUNET_1352:3 TAUGATE_1352:A 0.2907
*END

*D_NET net_53 2.3390
*CONN
*I TAUGATE_246:Z O
*I inst_621:A1 I
*I inst_1283:A I
*CAP
1 TAUGATE_246:Z 0.4966
2 net_53:1 0.2702
3 net_53:2 0.2135
4 net_53:3 0.0419
5 net_53:4 0.2773
6 net_53:5 0.0903
7 inst_621:A1 0.0485
8 net_53:6 0.2458
9 net_53:7 0.3734
10 net_53:8 0.1567
11 inst_1283:A 0.1247
*RES
2 TAUGATE_246:Z net_53:1 0.4602
3 net_53:1 net_53:2 0.4262
4 net_53:2 net_53:3 0.2009
5 net_53:3 net_53:4 0.3114
6 net_53:4 net_53:5 0.3090
7 net_53:5 inst_621:A1 0.3972
8 net_53:5 net_53:6 0.2439
9 net_53:6 net_53:7 0.2588
10 net_53:7 net_53:8 0.4474
11 net_53:8 inst_1283:A 0.3528
*END

*D_NET TAUNET_1613 1.1906
*CONN
*I inst_2582:ZN O
*I TAUGATE_1613:A I
*CAP
1 inst_2582:ZN 0.4436
2 TAUNET_1613:1 0.3275
3 TAUNET_1613:2 0.0169
4 TAUGATE_1613:A 0.4026
*RES
2 inst_2582:ZN TAUNET_1613:1 0.4684
3 TAUNET_1613:1 TAUNET_1613:2 0.2490
4 TAUNET_1613:2 TAUGATE_1613:A 0.0579
*END

*D_NET net_1377 2.1415
*CONN
*I TAUGATE_2177:Z O
*I inst_356:A I
*CAP
1 TAUGATE_2177:Z 0.2861
2 net_1377:1 0.3875
3 net_1377:2 0.4796
4 net_1377:3 0.3740
5 net_1377:4 0.1554
6 net_1377:5 0.0209
7 inst_356:A 0.4380
*RES
2 TAUGATE_2177:Z net_1377:1 0.4130
3 net_1377:1 net_1377:2 0.4990
4 net_1377:2 net_1377:3 0.2134
5 net_1377:3 net_1377:4 0.1115
6 net_1377:4 net_1377:5 0.4947
7 net_1377:5 inst_356:A 0.3666
*END

*D_NET net_1786 1.7795
*CONN
*I TAUGATE_644:Z O
*I inst_1791:D I
*CAP
1 TAUGATE_644:Z 0.4464
2 net_1786:1 0.2969
3 net_1786:2 0.3091
4 net_1786:3 0.5006
5 inst_1791:D 0.2264
*RES
2 TAUGATE_644:Z net_1786:1 0.3973
3 net_1786:1 net_1786:2 0.2044
4 net_1786:2 net_1786:3 0.1531
5 net_1786:3 inst_1791:D 0.3886
*END

*D_NET TAUNET_2542 1.3806
*CONN
*I inst_2109:QN O
*I TAUGATE_2542:A I
*CAP
1 inst_2109:QN 0.2468
2 TAUNET_2542:1 0.3652
3 TAUNET_2542:2 0.1857
4 TAUNET_2542:3 0.0562
5 TAUNET_2542:4 0.0882
6 TAUGATE_2542:A 0.4386
*RES
2 inst_2109:QN TAUNET_2542:1 0.2715
3 TAUNET_2542:1 TAUNET_2542:2 0.0199
4 TAUNET_2542:2 TAUNET_2542:3 0.4145
5 TAUNET_2542:3 TAUNET_2542:4 0.1459
6 TAUNET_2542:4 TAUGATE_2542:A 0.1130
*END

*D_NET TAUNET_91 0.5758
*CONN
*I inst_924:ZN O
*I TAUGATE_91:A I
*CAP
1 inst_924:ZN 0.1939
2 TAUNET_91:1 0.0212
3 TAUNET_91:2 0.1417
4 TAUGATE_91:A 0.2190
*RES
2 inst_924:ZN TAUNET_91:1 0.4826
3 TAUNET_91:1 TAUNET_91:2 0.1138
4 TAUNET_91:2 TAUGATE_91:A 0.4033
*END

*D_NET x3346 0.6715
*CONN
*I TAUGATE_1746:Z O
*I inst_2497:C2 I
*CAP
1 TAUGATE_1746:Z 0.2540
2 x3346:1 0.2388
3 inst_2497:C2 0.1787
*RES
2 TAUGATE_1746:Z x3346:1 0.3603
3 x3346:1 inst_2497:C2 0.0603
*END

*D_NET TAUNET_625 1.0565
*CONN
*I inst_948:ZN O
*I TAUGATE_625:A I
*CAP
1 inst_948:ZN 0.3102
2 TAUNET_625:1 0.2473
3 TAUNET_625:2 0.0055
4 TAUGATE_625:A 0.4935
*RES
2 inst_948:ZN TAUNET_625:1 0.2412
3 TAUNET_625:1 TAUNET_625:2 0.3995
4 TAUNET_625:2 TAUGATE_625:A 0.4441
*END

*D_NET TAUNET_2658 0.5340
*CONN
*I inst_480:ZN O
*I TAUGATE_2658:A I
*CAP
1 inst_480:ZN 0.0848
2 TAUNET_2658:1 0.0274
3 TAUGATE_2658:A 0.4218
*RES
2 inst_480:ZN TAUNET_2658:1 0.2061
3 TAUNET_2658:1 TAUGATE_2658:A 0.2110
*END

*D_NET TAUNET_1159 0.9202
*CONN
*P x4080 I
*I TAUGATE_1159:A I
*CAP
1 x4080 0.3985
2 TAUNET_1159:1 0.0725
3 TAUGATE_1159:A 0.4492
*RES
2 x4080 TAUNET_1159:1 0.3124
3 TAUNET_1159:1 TAUGATE_1159:A 0.3685
*END

*D_NET TAUNET_603 1.0045
*CONN
*I inst_490:ZN O
*I TAUGATE_603:A I
*CAP
1 inst_490:ZN 0.1801
2 TAUNET_603:1 0.3420
3 TAUNET_603:2 0.0965
4 TAUNET_603:3 0.2555
5 TAUGATE_603:A 0.1304
*RES
2 inst_490:ZN TAUNET_603:1 0.3675
3 TAUNET_603:1 TAUNET_603:2 0.4634
4 TAUNET_603:2 TAUNET_603:3 0.2869
5 TAUNET_603:3 TAUGATE_603:A 0.1646
*END

*D_NET net_1393 0.8697
*CONN
*I TAUGATE_1891:Z O
*I inst_372:A I
*CAP
1 TAUGATE_1891:Z 0.0327
2 net_1393:1 0.3721
3 inst_372:A 0.4648
*RES
2 TAUGATE_1891:Z net_1393:1 0.2376
3 net_1393:1 inst_372:A 0.1146
*END

*D_NET net_2169 1.9264
*CONN
*I TAUGATE_2073:Z O
*I inst_677:A2 I
*I inst_676:A2 I
*I inst_1020:A2 I
*CAP
1 TAUGATE_2073:Z 0.1439
2 net_2169:1 0.2502
3 inst_676:A2 0.2506
4 net_2169:2 0.2747
5 inst_677:A2 0.1704
6 net_2169:3 0.3621
7 net_2169:4 0.1254
8 inst_1020:A2 0.3490
*RES
2 TAUGATE_2073:Z net_2169:1 0.4486
3 net_2169:1 inst_676:A2 0.0641
4 net_2169:1 net_2169:2 0.2303
5 net_2169:2 inst_677:A2 0.0121
6 net_2169:1 net_2169:3 0.4751
7 net_2169:3 net_2169:4 0.3195
8 net_2169:4 inst_1020:A2 0.4748
*END

*D_NET TAUNET_2269 1.3487
*CONN
*I inst_1715:S O
*I TAUGATE_2269:A I
*CAP
1 inst_1715:S 0.2036
2 TAUNET_2269:1 0.0185
3 TAUNET_2269:2 0.3777
4 TAUNET_2269:3 0.2437
5 TAUNET_2269:4 0.3641
6 TAUGATE_2269:A 0.1411
*RES
2 inst_1715:S TAUNET_2269:1 0.2452
3 TAUNET_2269:1 TAUNET_2269:2 0.2723
4 TAUNET_2269:2 TAUNET_2269:3 0.2079
5 TAUNET_2269:3 TAUNET_2269:4 0.2449
6 TAUNET_2269:4 TAUGATE_2269:A 0.0406
*END

*D_NET TAUNET_1882 0.0517
*CONN
*I inst_2381:ZN O
*I TAUGATE_1882:A I
*CAP
1 inst_2381:ZN 0.0078
2 TAUNET_1882:1 0.0264
3 TAUGATE_1882:A 0.0174
*RES
2 inst_2381:ZN TAUNET_1882:1 0.1906
3 TAUNET_1882:1 TAUGATE_1882:A 0.1553
*END

*D_NET net_1324 1.3954
*CONN
*I TAUGATE_1643:Z O
*I inst_1878:D I
*CAP
1 TAUGATE_1643:Z 0.2944
2 net_1324:1 0.0209
3 net_1324:2 0.1182
4 net_1324:3 0.1067
5 net_1324:4 0.4881
6 inst_1878:D 0.3672
*RES
2 TAUGATE_1643:Z net_1324:1 0.4629
3 net_1324:1 net_1324:2 0.1157
4 net_1324:2 net_1324:3 0.1901
5 net_1324:3 net_1324:4 0.2138
6 net_1324:4 inst_1878:D 0.5008
*END

*D_NET net_2256 2.9905
*CONN
*I TAUGATE_2264:Z O
*I inst_263:B2 I
*I inst_591:A2 I
*CAP
1 TAUGATE_2264:Z 0.3428
2 net_2256:1 0.2733
3 net_2256:2 0.1266
4 net_2256:3 0.3814
5 inst_591:A2 0.1363
6 net_2256:4 0.1159
7 net_2256:5 0.4527
8 net_2256:6 0.1465
9 net_2256:7 0.1463
10 net_2256:8 0.4621
11 inst_263:B2 0.4065
*RES
2 TAUGATE_2264:Z net_2256:1 0.3277
3 net_2256:1 net_2256:2 0.3144
4 net_2256:2 net_2256:3 0.4503
5 net_2256:3 inst_591:A2 0.3676
6 net_2256:1 net_2256:4 0.0227
7 net_2256:4 net_2256:5 0.2236
8 net_2256:5 net_2256:6 0.4114
9 net_2256:6 net_2256:7 0.0715
10 net_2256:7 net_2256:8 0.1546
11 net_2256:8 inst_263:B2 0.1861
*END

*D_NET x1701 0.4780
*CONN
*I TAUGATE_2103:Z O
*P x1701 O
*CAP
1 TAUGATE_2103:Z 0.3452
2 x1701:1 0.1217
3 x1701 0.0111
*RES
2 TAUGATE_2103:Z x1701:1 0.1222
3 x1701:1 x1701 0.0613
*END

*D_NET TAUNET_1732 2.0882
*CONN
*I inst_992:ZN O
*I TAUGATE_1732:A I
*CAP
1 inst_992:ZN 0.4407
2 TAUNET_1732:1 0.2563
3 TAUNET_1732:2 0.2595
4 TAUNET_1732:3 0.2603
5 TAUNET_1732:4 0.2874
6 TAUNET_1732:5 0.3072
7 TAUGATE_1732:A 0.2768
*RES
2 inst_992:ZN TAUNET_1732:1 0.1679
3 TAUNET_1732:1 TAUNET_1732:2 0.2053
4 TAUNET_1732:2 TAUNET_1732:3 0.2140
5 TAUNET_1732:3 TAUNET_1732:4 0.3306
6 TAUNET_1732:4 TAUNET_1732:5 0.1569
7 TAUNET_1732:5 TAUGATE_1732:A 0.2580
*END

*D_NET net_264 2.4397
*CONN
*I TAUGATE_746:Z O
*I inst_161:B2 I
*CAP
1 TAUGATE_746:Z 0.4796
2 net_264:1 0.4946
3 net_264:2 0.4608
4 net_264:3 0.4692
5 net_264:4 0.4766
6 inst_161:B2 0.0589
*RES
2 TAUGATE_746:Z net_264:1 0.0962
3 net_264:1 net_264:2 0.2415
4 net_264:2 net_264:3 0.1750
5 net_264:3 net_264:4 0.4103
6 net_264:4 inst_161:B2 0.0845
*END

*D_NET TAUNET_192 0.7397
*CONN
*I inst_1364:ZN O
*I TAUGATE_192:A I
*CAP
1 inst_1364:ZN 0.1436
2 TAUNET_192:1 0.4748
3 TAUNET_192:2 0.0806
4 TAUGATE_192:A 0.0407
*RES
2 inst_1364:ZN TAUNET_192:1 0.2069
3 TAUNET_192:1 TAUNET_192:2 0.0491
4 TAUNET_192:2 TAUGATE_192:A 0.4137
*END

*D_NET TAUNET_874 1.2657
*CONN
*I inst_1862:QN O
*I TAUGATE_874:A I
*CAP
1 inst_1862:QN 0.2987
2 TAUNET_874:1 0.1831
3 TAUNET_874:2 0.4110
4 TAUNET_874:3 0.0191
5 TAUGATE_874:A 0.3538
*RES
2 inst_1862:QN TAUNET_874:1 0.4300
3 TAUNET_874:1 TAUNET_874:2 0.3629
4 TAUNET_874:2 TAUNET_874:3 0.0787
5 TAUNET_874:3 TAUGATE_874:A 0.2007
*END

*D_NET net_2207 2.1629
*CONN
*I TAUGATE_2070:Z O
*I inst_1034:A2 I
*CAP
1 TAUGATE_2070:Z 0.4025
2 net_2207:1 0.3538
3 net_2207:2 0.4649
4 net_2207:3 0.0482
5 net_2207:4 0.1062
6 net_2207:5 0.2963
7 inst_1034:A2 0.4911
*RES
2 TAUGATE_2070:Z net_2207:1 0.2002
3 net_2207:1 net_2207:2 0.2573
4 net_2207:2 net_2207:3 0.3761
5 net_2207:3 net_2207:4 0.0616
6 net_2207:4 net_2207:5 0.4298
7 net_2207:5 inst_1034:A2 0.2857
*END

*D_NET TAUNET_1117 0.6543
*CONN
*I inst_42:ZN O
*I TAUGATE_1117:A I
*CAP
1 inst_42:ZN 0.0470
2 TAUNET_1117:1 0.1738
3 TAUGATE_1117:A 0.4336
*RES
2 inst_42:ZN TAUNET_1117:1 0.4556
3 TAUNET_1117:1 TAUGATE_1117:A 0.1284
*END

*D_NET net_263 1.6488
*CONN
*I TAUGATE_2745:Z O
*I inst_284:B2 I
*CAP
1 TAUGATE_2745:Z 0.1731
2 net_263:1 0.3095
3 net_263:2 0.4895
4 net_263:3 0.4033
5 inst_284:B2 0.2734
*RES
2 TAUGATE_2745:Z net_263:1 0.3461
3 net_263:1 net_263:2 0.3729
4 net_263:2 net_263:3 0.0418
5 net_263:3 inst_284:B2 0.3671
*END

*D_NET net_1138 1.1766
*CONN
*I TAUGATE_1704:Z O
*I inst_1361:A I
*CAP
1 TAUGATE_1704:Z 0.1458
2 net_1138:1 0.0683
3 net_1138:2 0.2135
4 net_1138:3 0.4484
5 net_1138:4 0.1379
6 net_1138:5 0.1139
7 inst_1361:A 0.0489
*RES
2 TAUGATE_1704:Z net_1138:1 0.0861
3 net_1138:1 net_1138:2 0.1477
4 net_1138:2 net_1138:3 0.4806
5 net_1138:3 net_1138:4 0.3473
6 net_1138:4 net_1138:5 0.1114
7 net_1138:5 inst_1361:A 0.0198
*END

*D_NET TAUNET_427 1.3546
*CONN
*I inst_2101:QN O
*I TAUGATE_427:A I
*CAP
1 inst_2101:QN 0.1100
2 TAUNET_427:1 0.3290
3 TAUNET_427:2 0.1592
4 TAUNET_427:3 0.4236
5 TAUGATE_427:A 0.3328
*RES
2 inst_2101:QN TAUNET_427:1 0.1906
3 TAUNET_427:1 TAUNET_427:2 0.5003
4 TAUNET_427:2 TAUNET_427:3 0.4347
5 TAUNET_427:3 TAUGATE_427:A 0.3044
*END

*D_NET TAUNET_2849 1.5228
*CONN
*I inst_2559:ZN O
*I TAUGATE_2849:A I
*CAP
1 inst_2559:ZN 0.0096
2 TAUNET_2849:1 0.2377
3 TAUNET_2849:2 0.2571
4 TAUNET_2849:3 0.3610
5 TAUNET_2849:4 0.0042
6 TAUNET_2849:5 0.2690
7 TAUGATE_2849:A 0.3841
*RES
2 inst_2559:ZN TAUNET_2849:1 0.3400
3 TAUNET_2849:1 TAUNET_2849:2 0.2352
4 TAUNET_2849:2 TAUNET_2849:3 0.3112
5 TAUNET_2849:3 TAUNET_2849:4 0.1345
6 TAUNET_2849:4 TAUNET_2849:5 0.4134
7 TAUNET_2849:5 TAUGATE_2849:A 0.0741
*END

*D_NET net_1064 0.9047
*CONN
*I TAUGATE_201:Z O
*I inst_1964:D I
*CAP
1 TAUGATE_201:Z 0.4891
2 net_1064:1 0.2122
3 inst_1964:D 0.2034
*RES
2 TAUGATE_201:Z net_1064:1 0.1253
3 net_1064:1 inst_1964:D 0.2112
*END

*D_NET net_2082 0.7145
*CONN
*I TAUGATE_1711:Z O
*I inst_345:B1 I
*CAP
1 TAUGATE_1711:Z 0.1106
2 net_2082:1 0.2644
3 inst_345:B1 0.3395
*RES
2 TAUGATE_1711:Z net_2082:1 0.4160
3 net_2082:1 inst_345:B1 0.1311
*END

*D_NET TAUNET_546 0.5652
*CONN
*I inst_2616:ZN O
*I TAUGATE_546:A I
*CAP
1 inst_2616:ZN 0.0535
2 TAUNET_546:1 0.2939
3 TAUGATE_546:A 0.2177
*RES
2 inst_2616:ZN TAUNET_546:1 0.0520
3 TAUNET_546:1 TAUGATE_546:A 0.1787
*END

*D_NET net_1439 1.2588
*CONN
*I TAUGATE_2173:Z O
*I inst_1754:D I
*CAP
1 TAUGATE_2173:Z 0.2308
2 net_1439:1 0.4154
3 net_1439:2 0.4205
4 inst_1754:D 0.1921
*RES
2 TAUGATE_2173:Z net_1439:1 0.3303
3 net_1439:1 net_1439:2 0.0500
4 net_1439:2 inst_1754:D 0.3450
*END

*D_NET TAUNET_1443 1.3816
*CONN
*I inst_1552:ZN O
*I TAUGATE_1443:A I
*CAP
1 inst_1552:ZN 0.2397
2 TAUNET_1443:1 0.0450
3 TAUNET_1443:2 0.3586
4 TAUNET_1443:3 0.1804
5 TAUNET_1443:4 0.2132
6 TAUGATE_1443:A 0.3448
*RES
2 inst_1552:ZN TAUNET_1443:1 0.2539
3 TAUNET_1443:1 TAUNET_1443:2 0.0169
4 TAUNET_1443:2 TAUNET_1443:3 0.2910
5 TAUNET_1443:3 TAUNET_1443:4 0.3418
6 TAUNET_1443:4 TAUGATE_1443:A 0.0277
*END

*D_NET TAUNET_2788 0.7138
*CONN
*I inst_1164:ZN O
*I TAUGATE_2788:A I
*CAP
1 inst_1164:ZN 0.0700
2 TAUNET_2788:1 0.4916
3 TAUNET_2788:2 0.0258
4 TAUNET_2788:3 0.0722
5 TAUNET_2788:4 0.0268
6 TAUGATE_2788:A 0.0274
*RES
2 inst_1164:ZN TAUNET_2788:1 0.0955
3 TAUNET_2788:1 TAUNET_2788:2 0.0758
4 TAUNET_2788:2 TAUNET_2788:3 0.0730
5 TAUNET_2788:3 TAUNET_2788:4 0.2996
6 TAUNET_2788:4 TAUGATE_2788:A 0.1500
*END

*D_NET TAUNET_2177 1.1459
*CONN
*I inst_2253:ZN O
*I TAUGATE_2177:A I
*CAP
1 inst_2253:ZN 0.0605
2 TAUNET_2177:1 0.4347
3 TAUNET_2177:2 0.2976
4 TAUGATE_2177:A 0.3531
*RES
2 inst_2253:ZN TAUNET_2177:1 0.0316
3 TAUNET_2177:1 TAUNET_2177:2 0.1823
4 TAUNET_2177:2 TAUGATE_2177:A 0.0755
*END

*D_NET x2791 1.1637
*CONN
*I TAUGATE_586:Z O
*P x2791 O
*CAP
1 TAUGATE_586:Z 0.3515
2 x2791:1 0.4269
3 x2791:2 0.0493
4 x2791:3 0.0341
5 x2791 0.3020
*RES
2 TAUGATE_586:Z x2791:1 0.3389
3 x2791:1 x2791:2 0.4000
4 x2791:2 x2791:3 0.0188
5 x2791:3 x2791 0.4709
*END

*D_NET net_1778 3.8447
*CONN
*I TAUGATE_1637:Z O
*I inst_1232:A I
*I inst_1238:A I
*I inst_1473:A I
*I inst_300:A2 I
*CAP
1 TAUGATE_1637:Z 0.0122
2 net_1778:1 0.0936
3 net_1778:2 0.3051
4 net_1778:3 0.1197
5 inst_300:A2 0.2956
6 net_1778:4 0.0161
7 net_1778:5 0.2047
8 net_1778:6 0.3729
9 net_1778:7 0.0610
10 inst_1238:A 0.4010
11 net_1778:8 0.3618
12 net_1778:9 0.0820
13 net_1778:10 0.2174
14 net_1778:11 0.3638
15 inst_1473:A 0.4097
16 net_1778:12 0.0910
17 net_1778:13 0.1278
18 inst_1232:A 0.3093
*RES
2 TAUGATE_1637:Z net_1778:1 0.2210
3 net_1778:1 net_1778:2 0.0970
4 net_1778:2 net_1778:3 0.2798
5 net_1778:3 inst_300:A2 0.3150
6 net_1778:2 net_1778:4 0.2910
7 net_1778:4 net_1778:5 0.3768
8 net_1778:5 net_1778:6 0.3083
9 net_1778:6 net_1778:7 0.1250
10 net_1778:7 inst_1238:A 0.3526
11 net_1778:6 net_1778:8 0.2418
12 net_1778:8 net_1778:9 0.4080
13 net_1778:9 net_1778:10 0.3118
14 net_1778:10 net_1778:11 0.4981
15 net_1778:11 inst_1473:A 0.3134
16 net_1778:10 net_1778:12 0.3342
17 net_1778:12 net_1778:13 0.2150
18 net_1778:13 inst_1232:A 0.0109
*END

*D_NET net_508 0.4329
*CONN
*I TAUGATE_1314:Z O
*I inst_2055:D I
*CAP
1 TAUGATE_1314:Z 0.2298
2 net_508:1 0.0044
3 inst_2055:D 0.1986
*RES
2 TAUGATE_1314:Z net_508:1 0.0476
3 net_508:1 inst_2055:D 0.0521
*END

*D_NET TAUNET_362 1.1336
*CONN
*I inst_2306:ZN O
*I TAUGATE_362:A I
*CAP
1 inst_2306:ZN 0.0043
2 TAUNET_362:1 0.4724
3 TAUNET_362:2 0.2677
4 TAUNET_362:3 0.2426
5 TAUGATE_362:A 0.1466
*RES
2 inst_2306:ZN TAUNET_362:1 0.2784
3 TAUNET_362:1 TAUNET_362:2 0.2008
4 TAUNET_362:2 TAUNET_362:3 0.3776
5 TAUNET_362:3 TAUGATE_362:A 0.2937
*END

*D_NET net_1090 1.7223
*CONN
*I TAUGATE_91:Z O
*I inst_1968:D I
*CAP
1 TAUGATE_91:Z 0.2822
2 net_1090:1 0.0309
3 net_1090:2 0.1138
4 net_1090:3 0.3809
5 net_1090:4 0.3567
6 net_1090:5 0.3242
7 inst_1968:D 0.2336
*RES
2 TAUGATE_91:Z net_1090:1 0.3863
3 net_1090:1 net_1090:2 0.2365
4 net_1090:2 net_1090:3 0.1037
5 net_1090:3 net_1090:4 0.3572
6 net_1090:4 net_1090:5 0.2211
7 net_1090:5 inst_1968:D 0.2185
*END

*D_NET TAUNET_2302 1.2191
*CONN
*I inst_2023:QN O
*I TAUGATE_2302:A I
*CAP
1 inst_2023:QN 0.2538
2 TAUNET_2302:1 0.4791
3 TAUNET_2302:2 0.2417
4 TAUGATE_2302:A 0.2444
*RES
2 inst_2023:QN TAUNET_2302:1 0.4262
3 TAUNET_2302:1 TAUNET_2302:2 0.3737
4 TAUNET_2302:2 TAUGATE_2302:A 0.3015
*END

*D_NET TAUNET_2804 1.5079
*CONN
*I inst_1881:QN O
*I TAUGATE_2804:A I
*CAP
1 inst_1881:QN 0.3035
2 TAUNET_2804:1 0.0863
3 TAUNET_2804:2 0.2362
4 TAUNET_2804:3 0.1365
5 TAUNET_2804:4 0.0277
6 TAUNET_2804:5 0.4263
7 TAUGATE_2804:A 0.2912
*RES
2 inst_1881:QN TAUNET_2804:1 0.1111
3 TAUNET_2804:1 TAUNET_2804:2 0.3711
4 TAUNET_2804:2 TAUNET_2804:3 0.0512
5 TAUNET_2804:3 TAUNET_2804:4 0.1351
6 TAUNET_2804:4 TAUNET_2804:5 0.0984
7 TAUNET_2804:5 TAUGATE_2804:A 0.0368
*END

*D_NET TAUNET_932 1.0413
*CONN
*I inst_1032:ZN O
*I TAUGATE_932:A I
*CAP
1 inst_1032:ZN 0.1423
2 TAUNET_932:1 0.1146
3 TAUNET_932:2 0.3234
4 TAUGATE_932:A 0.4610
*RES
2 inst_1032:ZN TAUNET_932:1 0.4832
3 TAUNET_932:1 TAUNET_932:2 0.2776
4 TAUNET_932:2 TAUGATE_932:A 0.3781
*END

*D_NET TAUNET_2476 1.1921
*CONN
*I TAUGATE_34:Z O
*I TAUGATE_2476:A I
*CAP
1 TAUGATE_34:Z 0.0185
2 TAUNET_2476:1 0.1588
3 TAUNET_2476:2 0.3738
4 TAUNET_2476:3 0.4556
5 TAUNET_2476:4 0.1835
6 TAUGATE_2476:A 0.0020
*RES
2 TAUGATE_34:Z TAUNET_2476:1 0.2614
3 TAUNET_2476:1 TAUNET_2476:2 0.3010
4 TAUNET_2476:2 TAUNET_2476:3 0.2164
5 TAUNET_2476:3 TAUNET_2476:4 0.4372
6 TAUNET_2476:4 TAUGATE_2476:A 0.1158
*END

*D_NET net_703 1.8692
*CONN
*I TAUGATE_687:Z O
*I inst_259:A2 I
*I inst_232:A2 I
*CAP
1 TAUGATE_687:Z 0.3810
2 net_703:1 0.1662
3 net_703:2 0.3178
4 inst_259:A2 0.2541
5 net_703:3 0.4109
6 net_703:4 0.0945
7 net_703:5 0.2326
8 inst_232:A2 0.0121
*RES
2 TAUGATE_687:Z net_703:1 0.2497
3 net_703:1 net_703:2 0.4625
4 net_703:2 inst_259:A2 0.2343
5 net_703:2 net_703:3 0.2674
6 net_703:3 net_703:4 0.2072
7 net_703:4 net_703:5 0.0414
8 net_703:5 inst_232:A2 0.2455
*END

*D_NET net_193 1.7627
*CONN
*I TAUGATE_1005:Z O
*I inst_298:B2 I
*CAP
1 TAUGATE_1005:Z 0.0138
2 net_193:1 0.3131
3 net_193:2 0.4392
4 net_193:3 0.4048
5 net_193:4 0.0368
6 net_193:5 0.3283
7 inst_298:B2 0.2266
*RES
2 TAUGATE_1005:Z net_193:1 0.4199
3 net_193:1 net_193:2 0.3736
4 net_193:2 net_193:3 0.3306
5 net_193:3 net_193:4 0.3042
6 net_193:4 net_193:5 0.1317
7 net_193:5 inst_298:B2 0.1481
*END

*D_NET TAUNET_526 1.0046
*CONN
*I inst_2256:ZN O
*I TAUGATE_526:A I
*CAP
1 inst_2256:ZN 0.2201
2 TAUNET_526:1 0.3013
3 TAUNET_526:2 0.0758
4 TAUNET_526:3 0.0262
5 TAUGATE_526:A 0.3812
*RES
2 inst_2256:ZN TAUNET_526:1 0.0656
3 TAUNET_526:1 TAUNET_526:2 0.1550
4 TAUNET_526:2 TAUNET_526:3 0.0047
5 TAUNET_526:3 TAUGATE_526:A 0.1418
*END

*D_NET TAUNET_831 1.5283
*CONN
*I inst_1199:ZN O
*I TAUGATE_831:A I
*CAP
1 inst_1199:ZN 0.3805
2 TAUNET_831:1 0.0497
3 TAUNET_831:2 0.4938
4 TAUNET_831:3 0.3913
5 TAUGATE_831:A 0.2131
*RES
2 inst_1199:ZN TAUNET_831:1 0.3201
3 TAUNET_831:1 TAUNET_831:2 0.0320
4 TAUNET_831:2 TAUNET_831:3 0.2786
5 TAUNET_831:3 TAUGATE_831:A 0.3378
*END

*D_NET TAUNET_992 2.0655
*CONN
*I inst_1456:ZN O
*I TAUGATE_992:A I
*CAP
1 inst_1456:ZN 0.2454
2 TAUNET_992:1 0.2663
3 TAUNET_992:2 0.3641
4 TAUNET_992:3 0.1740
5 TAUNET_992:4 0.2701
6 TAUNET_992:5 0.3351
7 TAUGATE_992:A 0.4105
*RES
2 inst_1456:ZN TAUNET_992:1 0.3004
3 TAUNET_992:1 TAUNET_992:2 0.3665
4 TAUNET_992:2 TAUNET_992:3 0.1341
5 TAUNET_992:3 TAUNET_992:4 0.0859
6 TAUNET_992:4 TAUNET_992:5 0.1706
7 TAUNET_992:5 TAUGATE_992:A 0.3812
*END

*D_NET TAUNET_2909 0.4838
*CONN
*I inst_1081:ZN O
*I TAUGATE_2909:A I
*CAP
1 inst_1081:ZN 0.1227
2 TAUNET_2909:1 0.0059
3 TAUGATE_2909:A 0.3552
*RES
2 inst_1081:ZN TAUNET_2909:1 0.3839
3 TAUNET_2909:1 TAUGATE_2909:A 0.1840
*END

*D_NET net_201 2.5126
*CONN
*I TAUGATE_2284:Z O
*I inst_185:B2 I
*CAP
1 TAUGATE_2284:Z 0.3573
2 net_201:1 0.3575
3 net_201:2 0.1715
4 net_201:3 0.3050
5 net_201:4 0.3594
6 net_201:5 0.4902
7 inst_185:B2 0.4716
*RES
2 TAUGATE_2284:Z net_201:1 0.2112
3 net_201:1 net_201:2 0.1762
4 net_201:2 net_201:3 0.1166
5 net_201:3 net_201:4 0.1660
6 net_201:4 net_201:5 0.2177
7 net_201:5 inst_185:B2 0.2908
*END

*D_NET TAUNET_1270 1.2533
*CONN
*I inst_2081:QN O
*I TAUGATE_1270:A I
*CAP
1 inst_2081:QN 0.3308
2 TAUNET_1270:1 0.4669
3 TAUNET_1270:2 0.1932
4 TAUNET_1270:3 0.0675
5 TAUNET_1270:4 0.0053
6 TAUNET_1270:5 0.1459
7 TAUGATE_1270:A 0.0437
*RES
2 inst_2081:QN TAUNET_1270:1 0.4598
3 TAUNET_1270:1 TAUNET_1270:2 0.3838
4 TAUNET_1270:2 TAUNET_1270:3 0.2033
5 TAUNET_1270:3 TAUNET_1270:4 0.3263
6 TAUNET_1270:4 TAUNET_1270:5 0.4574
7 TAUNET_1270:5 TAUGATE_1270:A 0.4683
*END

*D_NET TAUNET_1108 1.4761
*CONN
*I inst_1879:QN O
*I TAUGATE_1108:A I
*CAP
1 inst_1879:QN 0.4873
2 TAUNET_1108:1 0.4800
3 TAUNET_1108:2 0.4518
4 TAUGATE_1108:A 0.0570
*RES
2 inst_1879:QN TAUNET_1108:1 0.4909
3 TAUNET_1108:1 TAUNET_1108:2 0.0572
4 TAUNET_1108:2 TAUGATE_1108:A 0.5008
*END

*D_NET TAUNET_1407 2.4403
*CONN
*I inst_735:ZN O
*I TAUGATE_1407:A I
*CAP
1 inst_735:ZN 0.2457
2 TAUNET_1407:1 0.2594
3 TAUNET_1407:2 0.3565
4 TAUNET_1407:3 0.4074
5 TAUNET_1407:4 0.4309
6 TAUNET_1407:5 0.4474
7 TAUGATE_1407:A 0.2931
*RES
2 inst_735:ZN TAUNET_1407:1 0.2848
3 TAUNET_1407:1 TAUNET_1407:2 0.2246
4 TAUNET_1407:2 TAUNET_1407:3 0.3320
5 TAUNET_1407:3 TAUNET_1407:4 0.3870
6 TAUNET_1407:4 TAUNET_1407:5 0.3663
7 TAUNET_1407:5 TAUGATE_1407:A 0.1512
*END

*D_NET TAUNET_733 2.3961
*CONN
*I inst_1627:ZN O
*I TAUGATE_733:A I
*CAP
1 inst_1627:ZN 0.4493
2 TAUNET_733:1 0.2866
3 TAUNET_733:2 0.1873
4 TAUNET_733:3 0.1599
5 TAUNET_733:4 0.3589
6 TAUNET_733:5 0.4697
7 TAUGATE_733:A 0.4844
*RES
2 inst_1627:ZN TAUNET_733:1 0.0401
3 TAUNET_733:1 TAUNET_733:2 0.2861
4 TAUNET_733:2 TAUNET_733:3 0.1883
5 TAUNET_733:3 TAUNET_733:4 0.3075
6 TAUNET_733:4 TAUNET_733:5 0.0604
7 TAUNET_733:5 TAUGATE_733:A 0.3908
*END

*D_NET net_1852 1.2659
*CONN
*I TAUGATE_902:Z O
*I inst_2554:B1 I
*I inst_2440:A1 I
*CAP
1 TAUGATE_902:Z 0.4162
2 net_1852:1 0.0491
3 net_1852:2 0.3511
4 inst_2440:A1 0.2111
5 net_1852:3 0.2365
6 inst_2554:B1 0.0021
*RES
2 TAUGATE_902:Z net_1852:1 0.3010
3 net_1852:1 net_1852:2 0.1515
4 net_1852:2 inst_2440:A1 0.0492
5 net_1852:2 net_1852:3 0.2080
6 net_1852:3 inst_2554:B1 0.3529
*END

*D_NET net_1720 1.9943
*CONN
*I TAUGATE_2736:Z O
*I inst_657:A1 I
*CAP
1 TAUGATE_2736:Z 0.3648
2 net_1720:1 0.3187
3 net_1720:2 0.4272
4 net_1720:3 0.0224
5 net_1720:4 0.4026
6 net_1720:5 0.2784
7 inst_657:A1 0.1803
*RES
2 TAUGATE_2736:Z net_1720:1 0.0882
3 net_1720:1 net_1720:2 0.2924
4 net_1720:2 net_1720:3 0.4780
5 net_1720:3 net_1720:4 0.3510
6 net_1720:4 net_1720:5 0.1182
7 net_1720:5 inst_657:A1 0.2614
*END

*D_NET TAUNET_303 2.0123
*CONN
*I inst_2588:ZN O
*I TAUGATE_303:A I
*CAP
1 inst_2588:ZN 0.2582
2 TAUNET_303:1 0.0762
3 TAUNET_303:2 0.1986
4 TAUNET_303:3 0.3922
5 TAUNET_303:4 0.3950
6 TAUNET_303:5 0.2666
7 TAUGATE_303:A 0.4255
*RES
2 inst_2588:ZN TAUNET_303:1 0.4671
3 TAUNET_303:1 TAUNET_303:2 0.2972
4 TAUNET_303:2 TAUNET_303:3 0.3936
5 TAUNET_303:3 TAUNET_303:4 0.4880
6 TAUNET_303:4 TAUNET_303:5 0.4169
7 TAUNET_303:5 TAUGATE_303:A 0.3167
*END

*D_NET TAUNET_439 1.2435
*CONN
*I inst_1745:QN O
*I TAUGATE_439:A I
*CAP
1 inst_1745:QN 0.1073
2 TAUNET_439:1 0.1300
3 TAUNET_439:2 0.3795
4 TAUNET_439:3 0.2362
5 TAUNET_439:4 0.1908
6 TAUGATE_439:A 0.1996
*RES
2 inst_1745:QN TAUNET_439:1 0.3123
3 TAUNET_439:1 TAUNET_439:2 0.1251
4 TAUNET_439:2 TAUNET_439:3 0.0048
5 TAUNET_439:3 TAUNET_439:4 0.3126
6 TAUNET_439:4 TAUGATE_439:A 0.0195
*END

*D_NET net_1555 4.4372
*CONN
*I TAUGATE_87:Z O
*I inst_89:D I
*I inst_2469:A2 I
*I inst_963:A2 I
*I inst_2496:B2 I
*I inst_2332:A2 I
*CAP
1 TAUGATE_87:Z 0.3700
2 net_1555:1 0.3466
3 net_1555:2 0.4948
4 net_1555:3 0.4038
5 net_1555:4 0.1954
6 inst_89:D 0.0063
7 net_1555:5 0.2231
8 inst_2469:A2 0.2934
9 net_1555:6 0.0765
10 net_1555:7 0.1980
11 net_1555:8 0.3226
12 inst_963:A2 0.1282
13 net_1555:9 0.0714
14 net_1555:10 0.2110
15 net_1555:11 0.2588
16 net_1555:12 0.0339
17 inst_2496:B2 0.0519
18 net_1555:13 0.3416
19 inst_2332:A2 0.4099
*RES
2 TAUGATE_87:Z net_1555:1 0.4904
3 net_1555:1 net_1555:2 0.0915
4 net_1555:2 net_1555:3 0.4619
5 net_1555:3 net_1555:4 0.1065
6 net_1555:4 inst_89:D 0.1990
7 net_1555:3 net_1555:5 0.0661
8 net_1555:5 inst_2469:A2 0.0281
9 net_1555:1 net_1555:6 0.2766
10 net_1555:6 net_1555:7 0.4045
11 net_1555:7 net_1555:8 0.4267
12 net_1555:8 inst_963:A2 0.4596
13 net_1555:7 net_1555:9 0.4874
14 net_1555:9 net_1555:10 0.0374
15 net_1555:10 net_1555:11 0.2489
16 net_1555:11 net_1555:12 0.2584
17 net_1555:12 inst_2496:B2 0.0346
18 net_1555:11 net_1555:13 0.1540
19 net_1555:13 inst_2332:A2 0.0325
*END

*D_NET x2562 1.0242
*CONN
*I TAUGATE_1708:Z O
*P x2562 O
*CAP
1 TAUGATE_1708:Z 0.1850
2 x2562:1 0.2746
3 x2562:2 0.4228
4 x2562 0.1417
*RES
2 TAUGATE_1708:Z x2562:1 0.3754