*SPEF "IEEE 1481-1998"
*DESIGN "changes"
*DATE "Mon Jan 05 14:32:01 2015"
*VENDOR "TAU 2015 Contest"
*PROGRAM "Benchmark Parasitic Generator"
*VERSION "0.0"
*DESIGN_FLOW "NETLIST_TYPE_VERILOG"
*DIVIDER /
*DELIMITER :
*BUS_DELIMITER [ ]
*T_UNIT 1 PS
*C_UNIT 1 FF
*R_UNIT 1 KOHM
*L_UNIT 1 UH

*D_NET net_2299 3.0173
*CONN
*I inst_2109:QN O
*I inst_1515:A I
*I inst_226:B2 I
*CAP
1 inst_2109:QN 0.2611
2 net_2299:1 0.4098
3 net_2299:2 0.5009
4 net_2299:3 0.2843
5 inst_1515:A 0.2878
6 net_2299:4 0.4685
7 net_2299:5 0.3070
8 net_2299:6 0.3583
9 inst_226:B2 0.1395
*RES
2 inst_2109:QN net_2299:1 0.1659
3 net_2299:1 net_2299:2 0.2742
4 net_2299:2 net_2299:3 0.3494
5 net_2299:3 inst_1515:A 0.1485
6 net_2299:3 net_2299:4 0.0646
7 net_2299:4 net_2299:5 0.0794
8 net_2299:5 net_2299:6 0.2161
9 net_2299:6 inst_226:B2 0.1614
*END

*D_NET net_2147 4.7351
*CONN
*I inst_1982:Q O
*I inst_2315:A2 I
*I inst_2203:B2 I
*I inst_2427:B2 I
*CAP
1 inst_1982:Q 0.3755
2 net_2147:1 0.4559
3 net_2147:2 0.4050
4 net_2147:3 0.0154
5 net_2147:4 0.1670
6 net_2147:5 0.1555
7 inst_2203:B2 0.2440
8 net_2147:6 0.0740
9 net_2147:7 0.4871
10 net_2147:8 0.4951
11 net_2147:9 0.4125
12 inst_2315:A2 0.0565
13 net_2147:10 0.4708
14 net_2147:11 0.3056
15 net_2147:12 0.3464
16 net_2147:13 0.0305
17 inst_2427:B2 0.2383
*RES
2 inst_1982:Q net_2147:1 0.0332
3 net_2147:1 net_2147:2 0.0406
4 net_2147:2 net_2147:3 0.2732
5 net_2147:3 net_2147:4 0.0073
6 net_2147:4 net_2147:5 0.1308
7 net_2147:5 inst_2203:B2 0.1374
8 net_2147:4 net_2147:6 0.1285
9 net_2147:6 net_2147:7 0.0292
10 net_2147:7 net_2147:8 0.2926
11 net_2147:8 net_2147:9 0.4507
12 net_2147:9 inst_2315:A2 0.3356
13 net_2147:8 net_2147:10 0.4020
14 net_2147:10 net_2147:11 0.2529
15 net_2147:11 net_2147:12 0.2665
16 net_2147:12 net_2147:13 0.4354
17 net_2147:13 inst_2427:B2 0.1977
*END

*D_NET TAUNET_744 1.4247
*CONN
*I TAUGATE_2732:Z O
*I TAUGATE_744:A I
*CAP
1 TAUGATE_2732:Z 0.3276
2 TAUNET_744:1 0.3292
3 TAUNET_744:2 0.0716
4 TAUNET_744:3 0.2236
5 TAUNET_744:4 0.1922
6 TAUGATE_744:A 0.2805
*RES
2 TAUGATE_2732:Z TAUNET_744:1 0.1322
3 TAUNET_744:1 TAUNET_744:2 0.1905
4 TAUNET_744:2 TAUNET_744:3 0.4017
5 TAUNET_744:3 TAUNET_744:4 0.4680
6 TAUNET_744:4 TAUGATE_744:A 0.2976
*END

*D_NET net_625 1.4553
*CONN
*I inst_2391:ZN O
*I inst_403:A I
*CAP
1 inst_2391:ZN 0.2927
2 net_625:1 0.2211
3 net_625:2 0.1955
4 net_625:3 0.1868
5 net_625:4 0.4889
6 inst_403:A 0.0703
*RES
2 inst_2391:ZN net_625:1 0.3298
3 net_625:1 net_625:2 0.4131
4 net_625:2 net_625:3 0.3310
5 net_625:3 net_625:4 0.2621
6 net_625:4 inst_403:A 0.4792
*END

*D_NET TAUNET_1392 1.1591
*CONN
*I TAUGATE_842:Z O
*I TAUGATE_1392:A I
*CAP
1 TAUGATE_842:Z 0.0717
2 TAUNET_1392:1 0.4035
3 TAUNET_1392:2 0.0219
4 TAUNET_1392:3 0.0830
5 TAUNET_1392:4 0.4539
6 TAUGATE_1392:A 0.1250
*RES
2 TAUGATE_842:Z TAUNET_1392:1 0.3196
3 TAUNET_1392:1 TAUNET_1392:2 0.4976
4 TAUNET_1392:2 TAUNET_1392:3 0.3591
5 TAUNET_1392:3 TAUNET_1392:4 0.2780
6 TAUNET_1392:4 TAUGATE_1392:A 0.2022
*END

