*SPEF "IEEE 1481-1998"
*DESIGN "wb_dma"
*DATE "Tue Nov 25 17:26:36 2014"
*VENDOR "TAU 2015 Contest"
*PROGRAM "Benchmark Parasitic Generator"
*VERSION "0.0"
*DESIGN_FLOW "NETLIST_TYPE_VERILOG"
*DIVIDER /
*DELIMITER :
*BUS_DELIMITER [ ]
*T_UNIT 1 PS
*C_UNIT 1 FF
*R_UNIT 1 KOHM
*L_UNIT 1 UH

*D_NET net_2449 1.5603
*CONN
*I inst_2657:Z O
*I inst_2658:A I
*I inst_2683:A I
*CAP
1 inst_2657:Z 0.0645
2 net_2449:1 0.4099
3 net_2449:2 0.1540
4 net_2449:3 0.0325
5 net_2449:4 0.0924
6 inst_2683:A 0.1850
7 net_2449:5 0.2001
8 inst_2658:A 0.4220
*RES
2 inst_2657:Z net_2449:1 0.1516
3 net_2449:1 net_2449:2 0.2746
4 net_2449:2 net_2449:3 0.4228
5 net_2449:3 net_2449:4 0.1417
6 net_2449:4 inst_2683:A 0.3754
7 net_2449:2 net_2449:5 0.4926
8 net_2449:5 inst_2658:A 0.0580
*END

*D_NET net_1317 0.5981
*CONN
*I inst_796:ZN O
*I inst_1913:D I
*CAP
1 inst_1913:D 0.0133
2 inst_796:ZN 0.0374
3 net_1317:1 0.2413
4 net_1317:2 0.1040
5 net_1317:3 0.1981
6 net_1317:4 0.0010
7 net_1317:5 0.0010
8 net_1317:6 0.0010
9 net_1317:7 0.0010
*RES
2 inst_1913:D net_1317:5 0.0050
3 inst_796:ZN net_1317:4 0.0021
4 net_1317:1 net_1317:2 0.0050
5 net_1317:1 net_1317:6 0.0088
6 net_1317:3 net_1317:4 0.0050
7 net_1317:5 net_1317:2 0.0025
8 net_1317:6 net_1317:7 0.0050
9 net_1317:7 net_1317:3 0.0060
*END

*D_NET net_416 0.2900
*CONN
*I inst_521:ZN O
*I inst_645:A1 I
*CAP
1 inst_645:A1 0.0218
2 inst_521:ZN 0.0276
3 net_416:1 0.0889
4 net_416:2 0.0789
5 net_416:3 0.0699
6 net_416:4 0.0010
7 net_416:5 0.0010
8 net_416:6 0.0010
*RES
2 inst_645:A1 net_416:4 0.0050
3 inst_521:ZN net_416:2 0.0050
4 net_416:1 net_416:5 0.0050
5 net_416:1 net_416:6 0.0020
6 net_416:2 net_416:5 0.0015
7 net_416:3 net_416:4 0.0015
8 net_416:6 net_416:3 0.0050
*END

*D_NET net_215 2.4890
*CONN
*I inst_1595:ZN O
*I inst_205:B2 I
*CAP
1 inst_1595:ZN 0.0284
2 inst_205:B2 0.1251
3 net_215:1 0.8532
4 net_215:2 1.1037
5 net_215:3 0.0462
6 net_215:4 0.1177
7 net_215:5 0.2077
8 net_215:6 0.0010
9 net_215:7 0.0010
10 net_215:8 0.0010
11 net_215:9 0.0010
12 net_215:10 0.0010
13 net_215:11 0.0010
14 net_215:12 0.0010
*RES
2 inst_1595:ZN net_215:6 0.0010
3 inst_205:B2 net_215:7 0.0093
4 net_215:1 net_215:8 0.0050
5 net_215:1 net_215:9 0.0353
6 net_215:2 net_215:4 0.0050
7 net_215:2 net_215:11 0.0428
8 net_215:3 net_215:7 0.0050
9 net_215:3 net_215:8 0.0010
10 net_215:5 net_215:6 0.0050
11 net_215:9 net_215:10 0.0050
12 net_215:10 net_215:4 0.0035
13 net_215:11 net_215:12 0.0050
14 net_215:12 net_215:5 0.0060
*END

*D_NET net_2394 0.4077
*CONN
*I inst_2039:Q O
*I inst_2439:B2 I
*CAP
1 inst_2439:B2 0.0118
2 inst_2039:Q 0.0037
3 net_2394:1 0.0716
4 net_2394:2 0.2578
5 net_2394:3 0.0598
6 net_2394:4 0.0010
7 net_2394:5 0.0010
8 net_2394:6 0.0010
*RES
2 inst_2439:B2 net_2394:2 0.0050
3 inst_2039:Q net_2394:4 0.0050
4 net_2394:1 net_2394:3 0.0050
5 net_2394:2 net_2394:6 0.0080
6 net_2394:3 net_2394:4 0.0015
7 net_2394:5 net_2394:1 0.0027
8 net_2394:5 net_2394:6 0.0050
*END

*D_NET x971 1.2085
*CONN
*I inst_1391:ZN O
*P x971 O
*CAP
1 x971 0.0077
2 inst_1391:ZN 0.0115
3 x971:1 0.6476
4 x971:2 0.0230
5 x971:3 0.1451
6 x971:4 0.3538
7 x971:5 0.0167
8 x971:6 0.0010
9 x971:7 0.0010
10 x971:8 0.0010
*RES
2 x971 x971:4 0.0150
3 inst_1391:ZN x971:5 0.0050
4 x971:1 x971:3 0.0050
5 x971:2 x971:4 0.0050
6 x971:2 x971:7 0.0010
7 x971:3 x971:8 0.0048
8 x971:6 x971:1 0.0101
9 x971:6 x971:7 0.0050
10 x971:8 x971:5 0.0050
*END

*D_NET net_2418 2.4853
*CONN
*I inst_2073:QN O
*I inst_2580:A2 I
*I inst_2594:A1 I
*I inst_2569:A3 I
*I inst_1510:A I
*I inst_1093:A1 I
*I inst_761:A2 I
*I inst_447:B2 I
*CAP
1 inst_2580:A2 0.0266
2 inst_2594:A1 0.0356
3 inst_2569:A3 0.0397
4 inst_2073:QN 0.0109
5 inst_1510:A 0.0116
6 inst_1093:A1 0.0232
7 inst_761:A2 0.0175
8 inst_447:B2 0.0287
9 net_2418:1 0.2190
10 net_2418:2 0.1232
11 net_2418:3 0.2846
12 net_2418:4 0.2458
13 net_2418:5 0.1805
14 net_2418:6 0.0591
15 net_2418:7 0.0238
16 net_2418:8 0.0747
17 net_2418:9 0.0738
18 net_2418:10 0.0840
19 net_2418:11 0.0182
20 net_2418:12 0.0833
21 net_2418:13 0.2153
22 net_2418:14 0.1004
23 net_2418:15 0.0855
24 net_2418:16 0.0130
25 net_2418:17 0.0411
26 net_2418:18 0.0387
27 net_2418:19 0.0968
28 net_2418:20 0.0226
29 net_2418:21 0.0973
30 net_2418:22 0.0348
31 net_2418:23 0.0200
32 net_2418:24 0.0208
33 net_2418:25 0.0230
34 net_2418:26 0.0010
35 net_2418:27 0.0010
36 net_2418:28 0.0010
37 net_2418:29 0.0010
38 net_2418:30 0.0010
39 net_2418:31 0.0010
40 net_2418:32 0.0010
41 net_2418:33 0.0010
42 net_2418:34 0.0010
43 net_2418:35 0.0010
44 net_2418:36 0.0010
45 net_2418:37 0.0010
*RES
2 inst_2580:A2 net_2418:10 0.0050
3 inst_2594:A1 net_2418:27 0.0021
4 inst_2569:A3 net_2418:22 0.0050
5 inst_2073:QN net_2418:23 0.0050
6 inst_1510:A net_2418:21 0.0050
7 inst_1093:A1 net_2418:18 0.0050
8 inst_761:A2 net_2418:20 0.0050
9 inst_447:B2 net_2418:26 0.0021
10 net_2418:1 net_2418:7 0.0050
11 net_2418:1 net_2418:28 0.0019
12 net_2418:2 net_2418:29 0.0050
13 net_2418:2 net_2418:3 0.0122
14 net_2418:2 net_2418:30 0.0034
15 net_2418:3 net_2418:11 0.0050
16 net_2418:4 net_2418:17 0.0050
17 net_2418:5 net_2418:6 0.0022
18 net_2418:5 net_2418:32 0.0053
19 net_2418:6 net_2418:15 0.0050
20 net_2418:7 net_2418:33 0.0050
21 net_2418:8 net_2418:23 0.0050
22 net_2418:8 net_2418:34 0.0027
23 net_2418:9 net_2418:35 0.0020
24 net_2418:10 net_2418:13 0.0070
25 net_2418:10 net_2418:11 0.0030
26 net_2418:12 net_2418:25 0.0050
27 net_2418:12 net_2418:14 0.0035
28 net_2418:12 net_2418:36 0.0030
29 net_2418:14 net_2418:17 0.0010
30 net_2418:15 net_2418:22 0.0010
31 net_2418:15 net_2418:16 0.0035
32 net_2418:18 net_2418:37 0.0010
33 net_2418:19 net_2418:33 0.0025
34 net_2418:21 net_2418:29 0.0020
35 net_2418:24 net_2418:25 0.0010
36 net_2418:26 net_2418:24 0.0010
37 net_2418:28 net_2418:5 0.0050
38 net_2418:30 net_2418:9 0.0050
39 net_2418:31 net_2418:4 0.0095
40 net_2418:31 net_2418:16 0.0050
41 net_2418:32 net_2418:20 0.0050
42 net_2418:34 net_2418:14 0.0050
43 net_2418:35 net_2418:27 0.0050
44 net_2418:36 net_2418:13 0.0010
45 net_2418:37 net_2418:19 0.0010
*END

*D_NET net_1382 0.8414
*CONN
*I inst_2248:ZN O
*I inst_370:A I
*CAP
1 inst_2248:ZN 0.0171
2 inst_370:A 0.0758
3 net_1382:1 0.7055
4 net_1382:2 0.0105
5 net_1382:3 0.0143
6 net_1382:4 0.0172
7 net_1382:5 0.0010
*RES
2 inst_2248:ZN net_1382:3 0.0050
3 inst_370:A net_1382:4 0.0052
4 net_1382:1 net_1382:2 0.0050
5 net_1382:1 net_1382:5 0.0210
6 net_1382:2 net_1382:4 0.0050
7 net_1382:5 net_1382:3 0.0050
*END

*D_NET net_943 0.4111
*CONN
*I inst_231:ZN O
*I inst_2117:D I
*CAP
1 inst_2117:D 0.0248
2 inst_231:ZN 0.1230
3 net_943:1 0.2613
4 net_943:2 0.0010
5 net_943:3 0.0010
*RES
2 inst_2117:D net_943:3 0.0050
3 inst_231:ZN net_943:2 0.0072
4 net_943:1 net_943:2 0.0050
5 net_943:3 net_943:1 0.0090
*END

*D_NET net_1897 2.3417
*CONN
*I inst_2441:ZN O
*I inst_695:A1 I
*CAP
1 inst_2441:ZN 0.0239
2 inst_695:A1 0.0135
3 net_1897:1 0.0823
4 net_1897:2 1.2809
5 net_1897:3 0.8866
6 net_1897:4 0.0198
7 net_1897:5 0.0174
8 net_1897:6 0.0142
9 net_1897:7 0.0010
10 net_1897:8 0.0010
11 net_1897:9 0.0010
*RES
2 inst_2441:ZN net_1897:6 0.0050
3 inst_695:A1 net_1897:4 0.0050
4 net_1897:1 net_1897:3 0.0050
5 net_1897:2 net_1897:4 0.0050
6 net_1897:2 net_1897:8 0.0370
7 net_1897:3 net_1897:9 0.0322
8 net_1897:5 net_1897:6 0.0010
9 net_1897:7 net_1897:1 0.0010
10 net_1897:7 net_1897:8 0.0050
11 net_1897:9 net_1897:5 0.0050
*END

*D_NET net_980 3.1407
*CONN
*I inst_2283:ZN O
*I inst_911:A1 I
*CAP
1 inst_2283:ZN 0.0118
2 inst_911:A1 0.0267
3 net_980:1 0.7178
4 net_980:2 0.7874
5 net_980:3 0.0317
6 net_980:4 1.3442
7 net_980:5 0.0162
8 net_980:6 0.0196
9 net_980:7 0.1053
10 net_980:8 0.0760
11 net_980:9 0.0010
12 net_980:10 0.0010
13 net_980:11 0.0010
14 net_980:12 0.0010
*RES
2 inst_2283:ZN net_980:8 0.0050
3 inst_911:A1 net_980:5 0.0050
4 net_980:1 net_980:6 0.0050
5 net_980:1 net_980:9 0.0244
6 net_980:2 net_980:10 0.0050
7 net_980:2 net_980:3 0.0265
8 net_980:3 net_980:4 0.0010
9 net_980:4 net_980:11 0.0394
10 net_980:5 net_980:6 0.0010
11 net_980:7 net_980:10 0.0035
12 net_980:9 net_980:7 0.0050
13 net_980:11 net_980:12 0.0050
14 net_980:12 net_980:8 0.0015
*END

*D_NET net_53 1.5449
*CONN
*I inst_2087:QN O
*I inst_1283:A I
*I inst_621:A1 I
*CAP
1 inst_2087:QN 0.0093
2 inst_1283:A 0.0156
3 inst_621:A1 0.0200
4 net_53:1 0.1544
5 net_53:2 0.7833
6 net_53:3 0.0554
7 net_53:4 0.0179
8 net_53:5 0.1793
9 net_53:6 0.2701
10 net_53:7 0.0173
11 net_53:8 0.0184
12 net_53:9 0.0010
13 net_53:10 0.0010
14 net_53:11 0.0010
15 net_53:12 0.0010
*RES
2 inst_2087:QN net_53:7 0.0050
3 inst_1283:A net_53:4 0.0050
4 inst_621:A1 net_53:9 0.0050
5 net_53:1 net_53:4 0.0050
6 net_53:1 net_53:3 0.0014
7 net_53:1 net_53:10 0.0041
8 net_53:2 net_53:5 0.0050
9 net_53:2 net_53:11 0.0224
10 net_53:3 net_53:6 0.0050
11 net_53:7 net_53:8 0.0010
12 net_53:9 net_53:5 0.0060
13 net_53:10 net_53:8 0.0050
14 net_53:11 net_53:12 0.0050
15 net_53:12 net_53:6 0.0095
*END

*D_NET net_3498 1.3311
*CONN
*I inst_3706:Z O
*I inst_3707:A I
*CAP
1 inst_3706:Z 0.4660
2 net_3498:1 0.2711
3 net_3498:2 0.1177
4 net_3498:3 0.1130
5 net_3498:4 0.0719
6 inst_3707:A 0.2913
*RES
2 inst_3706:Z net_3498:1 0.3837
3 net_3498:1 net_3498:2 0.4308
4 net_3498:2 net_3498:3 0.4593
5 net_3498:3 net_3498:4 0.4578
6 net_3498:4 inst_3707:A 0.1666
*END

*D_NET net_2542 2.6256
*CONN
*I inst_2750:Z O
*I inst_93:CK I
*I inst_3758:A I
*CAP
1 inst_2750:Z 0.2000
2 net_2542:1 0.3792
3 net_2542:2 0.3945
4 net_2542:3 0.1168
5 net_2542:4 0.0632
6 net_2542:5 0.3389
7 inst_3758:A 0.2267
8 net_2542:6 0.2162
9 net_2542:7 0.3480
10 inst_93:CK 0.3423
*RES
2 inst_2750:Z net_2542:1 0.0022
3 net_2542:1 net_2542:2 0.3986
4 net_2542:2 net_2542:3 0.0342
5 net_2542:3 net_2542:4 0.1492
6 net_2542:4 net_2542:5 0.1342
7 net_2542:5 inst_3758:A 0.2299
8 net_2542:1 net_2542:6 0.3091
9 net_2542:6 net_2542:7 0.3077
10 net_2542:7 inst_93:CK 0.0259
*END

*D_NET net_1786 1.1979
*CONN
*I inst_1708:ZN O
*I inst_1791:D I
*CAP
1 inst_1791:D 0.0209
2 inst_1708:ZN 0.0118
3 net_1786:1 1.0751
4 net_1786:2 0.0665
5 net_1786:3 0.0216
6 net_1786:4 0.0010
7 net_1786:5 0.0010
*RES
2 inst_1791:D net_1786:2 0.0050
3 inst_1708:ZN net_1786:3 0.0050
4 net_1786:1 net_1786:4 0.0050
5 net_1786:1 net_1786:5 0.0360
6 net_1786:2 net_1786:4 0.0010
7 net_1786:5 net_1786:3 0.0050
*END

*D_NET net_1377 1.5668
*CONN
*I inst_2253:ZN O
*I inst_356:A I
*CAP
1 inst_2253:ZN 0.1530
2 inst_356:A 0.1509
3 net_1377:1 0.7968
4 net_1377:2 0.0145
5 net_1377:3 0.3797
6 net_1377:4 0.0679
7 net_1377:5 0.0010
8 net_1377:6 0.0010
9 net_1377:7 0.0010
10 net_1377:8 0.0010
*RES
2 inst_2253:ZN net_1377:5 0.0103
3 inst_356:A net_1377:6 0.0103
4 net_1377:1 net_1377:3 0.0050
5 net_1377:1 net_1377:7 0.0285
6 net_1377:2 net_1377:6 0.0050
7 net_1377:2 net_1377:3 0.0135
8 net_1377:4 net_1377:5 0.0050
9 net_1377:7 net_1377:8 0.0050
10 net_1377:8 net_1377:4 0.0020
*END

*D_NET net_3996 0.7712
*CONN
*I inst_4204:Z O
*I inst_1790:CK I
*CAP
1 inst_4204:Z 0.0490
2 net_3996:1 0.4082
3 net_3996:2 0.0586
4 inst_1790:CK 0.2553
*RES
2 inst_4204:Z net_3996:1 0.4766
3 net_3996:1 net_3996:2 0.4662
4 net_3996:2 inst_1790:CK 0.1239
*END

*D_NET x3346 2.9253
*CONN
*P x3346 I
*I inst_2497:C2 I
*CAP
1 x3346 0.1774
2 inst_2497:C2 0.0434
3 x3346:1 1.5519
4 x3346:2 0.1228
5 x3346:3 0.0942
6 x3346:4 0.0631
7 x3346:5 0.2202
8 x3346:6 0.0461
9 x3346:7 0.5117
10 x3346:8 0.0162
11 x3346:9 0.0230
12 x3346:10 0.0483
13 x3346:11 0.0010
14 x3346:12 0.0010
15 x3346:13 0.0010
16 x3346:14 0.0010
17 x3346:15 0.0010
18 x3346:16 0.0010
19 x3346:17 0.0010
*RES
2 x3346 x3346:10 0.0076
3 inst_2497:C2 x3346:8 0.0050
4 x3346:1 x3346:12 0.0030
5 x3346:3 x3346:14 0.0030
6 x3346:4 x3346:6 0.0050
7 x3346:5 x3346:15 0.0050
8 x3346:7 x3346:17 0.0050
9 x3346:8 x3346:9 0.0010
10 x3346:11 x3346:1 0.0307
11 x3346:11 x3346:2 0.0030
12 x3346:12 x3346:3 0.0010
13 x3346:13 x3346:2 0.0010
14 x3346:13 x3346:4 0.0030
15 x3346:14 x3346:5 0.0027
16 x3346:15 x3346:7 0.0283
17 x3346:16 x3346:6 0.0010
18 x3346:16 x3346:9 0.0050
19 x3346:17 x3346:10 0.0020
*END

*D_NET net_1393 0.9060
*CONN
*I inst_2237:ZN O
*I inst_372:A I
*CAP
1 inst_2237:ZN 0.0655
2 inst_372:A 0.0221
3 net_1393:1 0.6243
4 net_1393:2 0.1104
5 net_1393:3 0.0787
6 net_1393:4 0.0010
7 net_1393:5 0.0010
8 net_1393:6 0.0010
9 net_1393:7 0.0010
10 net_1393:8 0.0010
*RES
2 inst_2237:ZN net_1393:4 0.0041
3 inst_372:A net_1393:5 0.0010
4 net_1393:1 net_1393:6 0.0050
5 net_1393:1 net_1393:7 0.0258
6 net_1393:2 net_1393:5 0.0050
7 net_1393:2 net_1393:6 0.0030
8 net_1393:3 net_1393:4 0.0050
9 net_1393:7 net_1393:8 0.0050
10 net_1393:8 net_1393:3 0.0020
*END

*D_NET net_2169 0.6049
*CONN
*I inst_2595:ZN O
*I inst_1020:A2 I
*I inst_676:A2 I
*I inst_677:A2 I
*CAP
1 inst_2595:ZN 0.0162
2 inst_1020:A2 0.0221
3 inst_676:A2 0.0093
4 inst_677:A2 0.0082
5 net_2169:1 0.2586
6 net_2169:2 0.0371
7 net_2169:3 0.1065
8 net_2169:4 0.0145
9 net_2169:5 0.0449
10 net_2169:6 0.0747
11 net_2169:7 0.0106
12 net_2169:8 0.0010
13 net_2169:9 0.0010
*RES
2 inst_2595:ZN net_2169:8 0.0050
3 inst_1020:A2 net_2169:5 0.0050
4 inst_676:A2 net_2169:3 0.0050
5 inst_677:A2 net_2169:4 0.0050
6 net_2169:1 net_2169:2 0.0050
7 net_2169:2 net_2169:3 0.0035
8 net_2169:2 net_2169:5 0.0015
9 net_2169:5 net_2169:7 0.0010
10 net_2169:6 net_2169:7 0.0010
11 net_2169:8 net_2169:6 0.0020
12 net_2169:9 net_2169:1 0.0088
13 net_2169:9 net_2169:4 0.0050
*END

*D_NET net_1324 1.0825
*CONN
*I inst_789:ZN O
*I inst_1878:D I
*CAP
1 inst_1878:D 0.0109
2 inst_789:ZN 0.0175
3 net_1324:1 0.3107
4 net_1324:2 0.0451
5 net_1324:3 0.0724
6 net_1324:4 0.4997
7 net_1324:5 0.0216
8 net_1324:6 0.1016
9 net_1324:7 0.0010
10 net_1324:8 0.0010
11 net_1324:9 0.0010
*RES
2 inst_1878:D net_1324:4 0.0050
3 inst_789:ZN net_1324:7 0.0050
4 net_1324:1 net_1324:2 0.0050
5 net_1324:1 net_1324:8 0.0029
6 net_1324:2 net_1324:5 0.0050
7 net_1324:3 net_1324:6 0.0050
8 net_1324:4 net_1324:5 0.0190
9 net_1324:6 net_1324:7 0.0025
10 net_1324:8 net_1324:9 0.0050
11 net_1324:9 net_1324:3 0.0016
*END

*D_NET net_2256 0.8268
*CONN
*I inst_2149:QN O
*I inst_591:A2 I
*I inst_263:B2 I
*CAP
1 inst_2149:QN 0.0256
2 inst_591:A2 0.0709
3 inst_263:B2 0.0481
4 net_2256:1 0.1444
5 net_2256:2 0.0790
6 net_2256:3 0.0705
7 net_2256:4 0.0888
8 net_2256:5 0.1872
9 net_2256:6 0.1044
10 net_2256:7 0.0010
11 net_2256:8 0.0010
12 net_2256:9 0.0010
13 net_2256:10 0.0010
14 net_2256:11 0.0010
15 net_2256:12 0.0010
16 net_2256:13 0.0010
17 net_2256:14 0.0010
*RES
2 inst_2149:QN net_2256:7 0.0050
3 inst_591:A2 net_2256:9 0.0031
4 inst_263:B2 net_2256:6 0.0050
5 inst_263:B2 net_2256:8 0.0021
6 net_2256:1 net_2256:4 0.0050
7 net_2256:2 net_2256:5 0.0050
8 net_2256:2 net_2256:12 0.0014
9 net_2256:3 net_2256:9 0.0050
10 net_2256:3 net_2256:11 0.0015
11 net_2256:4 net_2256:14 0.0020
12 net_2256:7 net_2256:5 0.0060
13 net_2256:10 net_2256:1 0.0027
14 net_2256:10 net_2256:11 0.0050
15 net_2256:12 net_2256:13 0.0050
16 net_2256:13 net_2256:6 0.0030
17 net_2256:14 net_2256:8 0.0050
*END

*D_NET x1701 2.0604
*CONN
*I inst_189:ZN O
*P x1701 O
*CAP
1 x1701 0.0250
2 inst_189:ZN 0.1283
3 x1701:1 0.9620
4 x1701:2 0.7073
5 x1701:3 0.0188
6 x1701:4 0.0966
7 x1701:5 0.0954
8 x1701:6 0.0229
9 x1701:7 0.0010
10 x1701:8 0.0010
11 x1701:9 0.0010
12 x1701:10 0.0010
*RES
2 x1701 x1701:7 0.0010
3 inst_189:ZN x1701:6 0.0083
4 x1701:1 x1701:7 0.0050
5 x1701:1 x1701:8 0.0366
6 x1701:2 x1701:4 0.0050
7 x1701:2 x1701:9 0.0265
8 x1701:3 x1701:4 0.0030
9 x1701:5 x1701:6 0.0050
10 x1701:8 x1701:3 0.0050
11 x1701:9 x1701:10 0.0050
12 x1701:10 x1701:5 0.0020
*END

*D_NET net_264 4.1267
*CONN
*I inst_1521:ZN O
*I inst_161:B2 I
*CAP
1 inst_1521:ZN 0.0094
2 inst_161:B2 0.0873
3 net_264:1 0.2535
4 net_264:2 0.1279
5 net_264:3 0.0426
6 net_264:4 1.1442
7 net_264:5 0.0412
8 net_264:6 2.0061
9 net_264:7 0.0965
10 net_264:8 0.0624
11 net_264:9 0.1770
12 net_264:10 0.0342
13 net_264:11 0.0104
14 net_264:12 0.0134
15 net_264:13 0.0156
16 net_264:14 0.0010
17 net_264:15 0.0010
18 net_264:16 0.0010
19 net_264:17 0.0010
20 net_264:18 0.0010
*RES
2 inst_1521:ZN net_264:13 0.0050
3 inst_161:B2 net_264:14 0.0052
4 net_264:1 net_264:7 0.0030
5 net_264:1 net_264:15 0.0025
6 net_264:2 net_264:3 0.0013
7 net_264:3 net_264:4 0.0010
8 net_264:4 net_264:5 0.0189
9 net_264:5 net_264:6 0.0010
10 net_264:6 net_264:16 0.0336
11 net_264:8 net_264:10 0.0050
12 net_264:9 net_264:12 0.0050
13 net_264:9 net_264:18 0.0074
14 net_264:10 net_264:13 0.0050
15 net_264:11 net_264:14 0.0050
16 net_264:11 net_264:12 0.0010
17 net_264:15 net_264:2 0.0010
18 net_264:16 net_264:8 0.0030
19 net_264:17 net_264:7 0.0010
20 net_264:17 net_264:18 0.0050
*END

*D_NET net_3904 0.9204
*CONN
*I inst_4112:Z O
*I inst_1922:CK I
*CAP
1 inst_4112:Z 0.1110
2 net_3904:1 0.3549
3 inst_1922:CK 0.4545
*RES
2 inst_4112:Z net_3904:1 0.0384
3 net_3904:1 inst_1922:CK 0.2530
*END

*D_NET net_2207 0.3114
*CONN
*I inst_1825:QN O
*I inst_1034:A2 I
*CAP
1 inst_1825:QN 0.0110
2 inst_1034:A2 0.1022
3 net_2207:1 0.1962
4 net_2207:2 0.0010
5 net_2207:3 0.0010
*RES
2 inst_1825:QN net_2207:2 0.0050
3 inst_1034:A2 net_2207:3 0.0052
4 net_2207:1 net_2207:3 0.0050
5 net_2207:1 net_2207:2 0.0075
*END

*D_NET net_263 2.6730
*CONN
*I inst_1523:ZN O
*I inst_284:B2 I
*CAP
1 inst_1523:ZN 0.0092
2 inst_284:B2 0.0251
3 net_263:1 0.9014
4 net_263:2 0.0457
5 net_263:3 0.0491
6 net_263:4 0.2899
7 net_263:5 0.7985
8 net_263:6 0.0218
9 net_263:7 0.5282
10 net_263:8 0.0010
11 net_263:9 0.0010
12 net_263:10 0.0010
13 net_263:11 0.0010
*RES
2 inst_1523:ZN net_263:7 0.0050
3 inst_284:B2 net_263:6 0.0050
4 net_263:1 net_263:2 0.0030
5 net_263:1 net_263:8 0.0143
6 net_263:2 net_263:9 0.0050
7 net_263:3 net_263:5 0.0050
8 net_263:4 net_263:6 0.0050
9 net_263:4 net_263:9 0.0090
10 net_263:5 net_263:10 0.0296
11 net_263:8 net_263:3 0.0030
12 net_263:10 net_263:11 0.0050
13 net_263:11 net_263:7 0.0190
*END

*D_NET net_3527 0.8317
*CONN
*I inst_3735:Z O
*I inst_3736:A I
*CAP
1 inst_3735:Z 0.2045
2 net_3527:1 0.2557
3 inst_3736:A 0.3715
*RES
2 inst_3735:Z net_3527:1 0.1826
3 net_3527:1 inst_3736:A 0.1063
*END

*D_NET net_1138 0.3233
*CONN
*I inst_2520:ZN O
*I inst_1361:A I
*CAP
1 inst_2520:ZN 0.0105
2 inst_1361:A 0.0197
3 net_1138:1 0.0702
4 net_1138:2 0.0112
5 net_1138:3 0.0164
6 net_1138:4 0.1933
7 net_1138:5 0.0010
8 net_1138:6 0.0010
*RES
2 inst_2520:ZN net_1138:4 0.0050
3 inst_1361:A net_1138:2 0.0050
4 net_1138:1 net_1138:6 0.0050
5 net_1138:2 net_1138:3 0.0010
6 net_1138:5 net_1138:1 0.0020
7 net_1138:5 net_1138:3 0.0050
8 net_1138:6 net_1138:4 0.0050
*END

*D_NET net_2769 4.0574
*CONN
*I inst_2977:Z O
*I inst_2978:A I
*I inst_3888:A I
*CAP
1 inst_2977:Z 0.4639
2 net_2769:1 0.4434
3 net_2769:2 0.3746
4 net_2769:3 0.2676
5 net_2769:4 0.4860
6 net_2769:5 0.1238
7 inst_3888:A 0.2495
8 net_2769:6 0.3997
9 net_2769:7 0.0032
10 net_2769:8 0.1283
11 net_2769:9 0.4042
12 net_2769:10 0.3712
13 inst_2978:A 0.3419
*RES
2 inst_2977:Z net_2769:1 0.3916
3 net_2769:1 net_2769:2 0.1836
4 net_2769:2 net_2769:3 0.0555
5 net_2769:3 net_2769:4 0.0592
6 net_2769:4 net_2769:5 0.4448
7 net_2769:5 inst_3888:A 0.3521
8 net_2769:2 net_2769:6 0.1923
9 net_2769:6 net_2769:7 0.3021
10 net_2769:7 net_2769:8 0.2553
11 net_2769:8 net_2769:9 0.1829
12 net_2769:9 net_2769:10 0.4320
13 net_2769:10 inst_2978:A 0.4742
*END

*D_NET net_3483 1.9031
*CONN
*I inst_3691:Z O
*I inst_3692:A I
*CAP
1 inst_3691:Z 0.4327
2 net_3483:1 0.4893
3 net_3483:2 0.5006
4 net_3483:3 0.0906
5 net_3483:4 0.1121
6 inst_3692:A 0.2778
*RES
2 inst_3691:Z net_3483:1 0.1931
3 net_3483:1 net_3483:2 0.3334
4 net_3483:2 net_3483:3 0.0690
5 net_3483:3 net_3483:4 0.1259
6 net_3483:4 inst_3692:A 0.1250
*END

*D_NET net_3707 1.5108
*CONN
*I inst_3915:Z O
*I inst_1913:CK I
*CAP
1 inst_3915:Z 0.0781
2 net_3707:1 0.2704
3 net_3707:2 0.3469
4 net_3707:3 0.3236
5 inst_1913:CK 0.4918
*RES
2 inst_3915:Z net_3707:1 0.1244
3 net_3707:1 net_3707:2 0.3950
4 net_3707:2 net_3707:3 0.4168
5 net_3707:3 inst_1913:CK 0.0096
*END

*D_NET net_1064 0.3505
*CONN
*I inst_936:ZN O
*I inst_1964:D I
*CAP
1 inst_1964:D 0.0123
2 inst_936:ZN 0.1476
3 net_1064:1 0.1885
4 net_1064:2 0.0010
5 net_1064:3 0.0010
*RES
2 inst_1964:D net_1064:1 0.0050
3 inst_936:ZN net_1064:2 0.0083
4 net_1064:1 net_1064:3 0.0055
5 net_1064:3 net_1064:2 0.0050
*END

*D_NET net_2082 0.4358
*CONN
*I inst_439:ZN O
*I inst_345:B1 I
*CAP
1 inst_345:B1 0.0349
2 inst_439:ZN 0.0097
3 net_2082:1 0.1327
4 net_2082:2 0.0800
5 net_2082:3 0.1277
6 net_2082:4 0.0157
7 net_2082:5 0.0109
8 net_2082:6 0.0211
9 net_2082:7 0.0010
10 net_2082:8 0.0010
11 net_2082:9 0.0010
*RES
2 inst_345:B1 net_2082:6 0.0050
3 inst_439:ZN net_2082:4 0.0050
4 net_2082:1 net_2082:3 0.0050
5 net_2082:2 net_2082:5 0.0050
6 net_2082:2 net_2082:8 0.0022
7 net_2082:3 net_2082:9 0.0032
8 net_2082:4 net_2082:5 0.0010
9 net_2082:7 net_2082:1 0.0010
10 net_2082:7 net_2082:8 0.0050
11 net_2082:9 net_2082:6 0.0050
*END

*D_NET net_3292 1.4540
*CONN
*I inst_3500:Z O
*I inst_3501:A I
*CAP
1 inst_3500:Z 0.4117
2 net_3292:1 0.3415
3 net_3292:2 0.3758
4 inst_3501:A 0.3250
*RES
2 inst_3500:Z net_3292:1 0.2255
3 net_3292:1 net_3292:2 0.3016
4 net_3292:2 inst_3501:A 0.0348
*END

*D_NET net_1439 0.7301
*CONN
*I inst_355:ZN O
*I inst_1754:D I
*CAP
1 inst_1754:D 0.0215
2 inst_355:ZN 0.1466
3 net_1439:1 0.1576
4 net_1439:2 0.2231
5 net_1439:3 0.1773
6 net_1439:4 0.0010
7 net_1439:5 0.0010
8 net_1439:6 0.0010
9 net_1439:7 0.0010
*RES
2 inst_1754:D net_1439:5 0.0050
3 inst_355:ZN net_1439:4 0.0103
4 net_1439:1 net_1439:2 0.0050
5 net_1439:1 net_1439:6 0.0054
6 net_1439:3 net_1439:4 0.0050
7 net_1439:5 net_1439:2 0.0080
8 net_1439:6 net_1439:7 0.0050
9 net_1439:7 net_1439:3 0.0060
*END

*D_NET x2791 5.4926
*CONN
*I inst_909:ZN O
*P x2791 O
*CAP
1 x2791 0.0251
2 inst_909:ZN 0.0366
3 x2791:1 0.2899
4 x2791:2 0.1966
5 x2791:3 0.0809
6 x2791:4 0.0176
7 x2791:5 0.0170
8 x2791:6 0.0253
9 x2791:7 1.4326
10 x2791:8 0.9694
11 x2791:9 0.6046
12 x2791:10 0.0106
13 x2791:11 0.2211
14 x2791:12 0.8698
15 x2791:13 0.6551
16 x2791:14 0.0115
17 x2791:15 0.0178
18 x2791:16 0.0010
19 x2791:17 0.0010
20 x2791:18 0.0010
21 x2791:19 0.0010
22 x2791:20 0.0010
23 x2791:21 0.0010
24 x2791:22 0.0010
25 x2791:23 0.0010
26 x2791:24 0.0010
27 x2791:25 0.0010
28 x2791:26 0.0010
*RES
2 x2791 x2791:17 0.0010
3 inst_909:ZN x2791:16 0.0021
4 x2791:1 x2791:5 0.0030
5 x2791:2 x2791:6 0.0030
6 x2791:2 x2791:19 0.0029
7 x2791:3 x2791:7 0.0030
8 x2791:3 x2791:21 0.0010
9 x2791:4 x2791:8 0.0030
10 x2791:5 x2791:23 0.0030
11 x2791:6 x2791:24 0.0050
12 x2791:9 x2791:13 0.0050
13 x2791:10 x2791:17 0.0050
14 x2791:10 x2791:11 0.0010
15 x2791:11 x2791:25 0.0122
16 x2791:12 x2791:24 0.0404
17 x2791:13 x2791:26 0.0245
18 x2791:14 x2791:15 0.0010
19 x2791:15 x2791:16 0.0050
20 x2791:18 x2791:1 0.0046
21 x2791:18 x2791:4 0.0030
22 x2791:19 x2791:20 0.0030
23 x2791:20 x2791:7 0.0223
24 x2791:21 x2791:22 0.0030
25 x2791:22 x2791:8 0.0151
26 x2791:23 x2791:9 0.0088
27 x2791:25 x2791:12 0.0010
28 x2791:26 x2791:14 0.0050
*END

*D_NET net_1778 5.6868
*CONN
*I inst_1666:ZN O
*I inst_1473:A I
*I inst_1232:A I
*I inst_1238:A I
*I inst_300:A2 I
*CAP
1 inst_1473:A 0.0064
2 inst_1666:ZN 0.0309
3 inst_1232:A 0.0217
4 inst_1238:A 0.0210
5 inst_300:A2 0.0159
6 net_1778:1 0.0729
7 net_1778:2 0.0882
8 net_1778:3 0.9603
9 net_1778:4 0.6171
10 net_1778:5 0.5737
11 net_1778:6 0.0284
12 net_1778:7 0.5926
13 net_1778:8 0.2861
14 net_1778:9 1.9237
15 net_1778:10 0.1792
16 net_1778:11 0.0666
17 net_1778:12 0.0523
18 net_1778:13 0.0320
19 net_1778:14 0.0097
20 net_1778:15 0.0588
21 net_1778:16 0.0392
22 net_1778:17 0.0010
23 net_1778:18 0.0010
24 net_1778:19 0.0010
25 net_1778:20 0.0010
26 net_1778:21 0.0010
27 net_1778:22 0.0010
28 net_1778:23 0.0010
29 net_1778:24 0.0010
30 net_1778:25 0.0010
31 net_1778:26 0.0010
*RES
2 inst_1473:A net_1778:12 0.0050
3 inst_1666:ZN inst_1473:A 0.0021
4 inst_1232:A net_1778:13 0.0050
5 inst_1238:A net_1778:14 0.0050
6 inst_300:A2 net_1778:17 0.0050
7 net_1778:1 net_1778:19 0.0050
8 net_1778:2 net_1778:8 0.0050
9 net_1778:2 net_1778:20 0.0010
10 net_1778:4 net_1778:11 0.0050
11 net_1778:5 net_1778:6 0.0010
12 net_1778:6 net_1778:7 0.0224
13 net_1778:7 net_1778:25 0.0050
14 net_1778:9 net_1778:16 0.0050
15 net_1778:10 net_1778:16 0.0010
16 net_1778:10 net_1778:17 0.0055
17 net_1778:11 net_1778:24 0.0015
18 net_1778:13 net_1778:14 0.0014
19 net_1778:13 net_1778:15 0.0010
20 net_1778:18 net_1778:1 0.0010
21 net_1778:18 net_1778:3 0.0050
22 net_1778:19 net_1778:4 0.0229
23 net_1778:20 net_1778:21 0.0050
24 net_1778:21 net_1778:9 0.0539
25 net_1778:22 net_1778:3 0.0321
26 net_1778:22 net_1778:10 0.0050
27 net_1778:23 net_1778:5 0.0244
28 net_1778:23 net_1778:24 0.0050
29 net_1778:25 net_1778:12 0.0010
30 net_1778:26 net_1778:8 0.0099
31 net_1778:26 net_1778:15 0.0050
*END

*D_NET net_508 4.0035
*CONN
*I inst_559:ZN O
*I inst_2055:D I
*CAP
1 inst_2055:D 0.0128
2 inst_559:ZN 0.0249
3 net_508:1 1.4621
4 net_508:2 2.3538
5 net_508:3 0.0304
6 net_508:4 0.0180
7 net_508:5 0.0985
8 net_508:6 0.0010
9 net_508:7 0.0010
10 net_508:8 0.0010
*RES
2 inst_2055:D net_508:4 0.0050
3 inst_559:ZN net_508:5 0.0050
4 net_508:1 net_508:3 0.0050
5 net_508:2 net_508:4 0.0050
6 net_508:2 net_508:7 0.1286
7 net_508:3 net_508:8 0.0050
8 net_508:6 net_508:1 0.0218
9 net_508:6 net_508:7 0.0050
10 net_508:8 net_508:5 0.0020
*END

*D_NET net_1090 0.1658
*CONN
*I inst_924:ZN O
*I inst_1968:D I
*CAP
1 inst_1968:D 0.0132
2 inst_924:ZN 0.0210
3 net_1090:1 0.1296
4 net_1090:2 0.0010
5 net_1090:3 0.0010
*RES
2 inst_1968:D net_1090:3 0.0050
3 inst_924:ZN net_1090:2 0.0010
4 net_1090:1 net_1090:2 0.0050
5 net_1090:3 net_1090:1 0.0040
*END

*D_NET net_3685 1.5240
*CONN
*I inst_3893:Z O
*I inst_1916:CK I
*CAP
1 inst_3893:Z 0.4761
2 net_3685:1 0.4609
3 net_3685:2 0.1362
4 net_3685:3 0.3061
5 inst_1916:CK 0.1446
*RES
2 inst_3893:Z net_3685:1 0.2626
3 net_3685:1 net_3685:2 0.2776
4 net_3685:2 net_3685:3 0.3309
5 net_3685:3 inst_1916:CK 0.2606
*END

*D_NET net_703 0.1381
*CONN
*I inst_1448:ZN O
*I inst_232:A2 I
*I inst_259:A2 I
*CAP
1 inst_1448:ZN 0.0533
2 inst_232:A2 0.0234
3 net_703:1 0.0585
4 inst_259:A2 0.0010
5 net_703:2 0.0010
6 net_703:3 0.0010
*RES
2 inst_1448:ZN inst_259:A2 0.0010
3 inst_1448:ZN net_703:2 0.0021
4 inst_232:A2 net_703:3 0.0050
5 net_703:1 net_703:2 0.0050
6 net_703:3 net_703:1 0.0010
*END

*D_NET net_193 2.4426
*CONN
*I inst_1628:ZN O
*I inst_298:B2 I
*CAP
1 inst_1628:ZN 0.0278
2 inst_298:B2 0.0250
3 net_193:1 2.1957
4 net_193:2 0.0507
5 net_193:3 0.1395
6 net_193:4 0.0010
7 net_193:5 0.0010
8 net_193:6 0.0010
9 net_193:7 0.0010
*RES
2 inst_1628:ZN net_193:4 0.0010
3 inst_298:B2 net_193:2 0.0050
4 net_193:1 net_193:5 0.0050
5 net_193:1 net_193:6 0.0916
6 net_193:2 net_193:5 0.0010
7 net_193:3 net_193:4 0.0050
8 net_193:6 net_193:7 0.0050
9 net_193:7 net_193:3 0.0045
*END

*D_NET net_201 3.6632
*CONN
*I inst_1615:ZN O
*I inst_185:B2 I
*CAP
1 inst_1615:ZN 0.0198
2 inst_185:B2 0.0206
3 net_201:1 1.3899
4 net_201:2 0.3351
5 net_201:3 1.2978
6 net_201:4 0.0935
7 net_201:5 0.0263
8 net_201:6 0.1742
9 net_201:7 0.0238
10 net_201:8 0.0164
11 net_201:9 0.2588
12 net_201:10 0.0010
13 net_201:11 0.0010
14 net_201:12 0.0010
15 net_201:13 0.0010
16 net_201:14 0.0010
17 net_201:15 0.0010
18 net_201:16 0.0010
*RES
2 inst_1615:ZN net_201:10 0.0050
3 inst_185:B2 net_201:11 0.0010
4 net_201:1 net_201:3 0.0030
5 net_201:2 net_201:4 0.0030
6 net_201:2 net_201:13 0.0046
7 net_201:3 net_201:14 0.0239
8 net_201:5 net_201:7 0.0050
9 net_201:6 net_201:8 0.0050
10 net_201:6 net_201:16 0.0058
11 net_201:7 net_201:9 0.0050
12 net_201:8 net_201:11 0.0050
13 net_201:9 net_201:10 0.0090
14 net_201:12 net_201:1 0.0269
15 net_201:12 net_201:13 0.0030
16 net_201:14 net_201:5 0.0030
17 net_201:15 net_201:4 0.0010
18 net_201:15 net_201:16 0.0050
*END

*D_NET net_2942 0.8386
*CONN
*I inst_3150:Z O
*I inst_114:CK I
*CAP
1 inst_3150:Z 0.0918
2 net_2942:1 0.0832
3 net_2942:2 0.1774
4 inst_114:CK 0.4862
*RES
2 inst_3150:Z net_2942:1 0.1406
3 net_2942:1 net_2942:2 0.4593
4 net_2942:2 inst_114:CK 0.1752
*END

*D_NET net_3817 1.6274
*CONN
*I inst_4025:Z O
*I inst_4026:A I
*CAP
1 inst_4025:Z 0.4628
2 net_3817:1 0.4185
3 net_3817:2 0.0117
4 net_3817:3 0.2769
5 inst_4026:A 0.4574
*RES
2 inst_4025:Z net_3817:1 0.1984
3 net_3817:1 net_3817:2 0.1896
4 net_3817:2 net_3817:3 0.3346
5 net_3817:3 inst_4026:A 0.4957
*END

*D_NET net_3280 1.4908
*CONN
*I inst_3488:Z O
*I inst_2048:CK I
*CAP
1 inst_3488:Z 0.2969
2 net_3280:1 0.4874
3 net_3280:2 0.4231
4 net_3280:3 0.0305
5 inst_2048:CK 0.2528
*RES
2 inst_3488:Z net_3280:1 0.0842
3 net_3280:1 net_3280:2 0.0014
4 net_3280:2 net_3280:3 0.4065
5 net_3280:3 inst_2048:CK 0.1388
*END

*D_NET net_3085 1.3584
*CONN
*I inst_3293:Z O
*I inst_3294:A I
*CAP
1 inst_3293:Z 0.3821
2 net_3085:1 0.0709
3 net_3085:2 0.4961
4 inst_3294:A 0.4092
*RES
2 inst_3293:Z net_3085:1 0.4538
3 net_3085:1 net_3085:2 0.3826
4 net_3085:2 inst_3294:A 0.4229
*END

*D_NET net_2896 0.8506
*CONN
*I inst_3104:Z O
*I inst_88:CK I
*CAP
1 inst_3104:Z 0.4322
2 net_2896:1 0.1578
3 inst_88:CK 0.2606
*RES
2 inst_3104:Z net_2896:1 0.1901
3 net_2896:1 inst_88:CK 0.1438
*END

*D_NET net_3281 1.5474
*CONN
*I inst_3489:Z O
*I inst_3490:A I
*CAP
1 inst_3489:Z 0.3666
2 net_3281:1 0.0695
3 net_3281:2 0.4498
4 net_3281:3 0.1049
5 net_3281:4 0.4247
6 inst_3490:A 0.1320
*RES
2 inst_3489:Z net_3281:1 0.0074
3 net_3281:1 net_3281:2 0.3711
4 net_3281:2 net_3281:3 0.3601
5 net_3281:3 net_3281:4 0.3918
6 net_3281:4 inst_3490:A 0.4132
*END

*D_NET net_3949 1.5318
*CONN
*I inst_4157:Z O
*I inst_2073:CK I
*CAP
1 inst_4157:Z 0.2888
2 net_3949:1 0.0282
3 net_3949:2 0.1520
4 net_3949:3 0.4942
5 net_3949:4 0.3819
6 inst_2073:CK 0.1866
*RES
2 inst_4157:Z net_3949:1 0.3461
3 net_3949:1 net_3949:2 0.3038
4 net_3949:2 net_3949:3 0.1221
5 net_3949:3 net_3949:4 0.3721
6 net_3949:4 inst_2073:CK 0.2315
*END

*D_NET net_3134 2.5509
*CONN
*I inst_3342:Z O
*I inst_1725:CK I
*I inst_3628:A I
*CAP
1 inst_3342:Z 0.1956
2 net_3134:1 0.0750
3 net_3134:2 0.1078
4 net_3134:3 0.1867
5 net_3134:4 0.4055
6 net_3134:5 0.0735
7 inst_1725:CK 0.3442
8 net_3134:6 0.3291
9 net_3134:7 0.4620
10 net_3134:8 0.3499
11 inst_3628:A 0.0216
*RES
2 inst_3342:Z net_3134:1 0.0506