*SPEF "IEEE 1481-1998"
*DESIGN "c17"
*DATE "Tue Nov 25 16:54:37 2014"
*VENDOR "TAU 2015 Contest"
*PROGRAM "Benchmark Parasitic Generator"
*VERSION "0.0"
*DESIGN_FLOW "NETLIST_TYPE_VERILOG"
*DIVIDER /
*DELIMITER :
*BUS_DELIMITER [ ]
*T_UNIT 1 PS
*C_UNIT 1 FF
*R_UNIT 1 KOHM
*L_UNIT 1 UH

*D_NET net_1 0.3387
*CONN
*I inst_0:ZN O
*I inst_2:A2 I
*I inst_3:A2 I
*CAP
1 inst_0:ZN 0.0141
2 inst_2:A2 0.0073
3 inst_3:A2 0.0166
4 net_1:1 0.0156
5 net_1:2 0.0170
6 net_1:3 0.0170
7 net_1:4 0.0461
8 net_1:5 0.0761
9 net_1:6 0.0182
10 net_1:7 0.0182
11 net_1:8 0.0224
12 net_1:9 0.0163
13 net_1:10 0.0163
14 net_1:11 0.0376
*RES
2 inst_0:ZN net_1:8 0.0021
3 net_1:1 inst_2:A2 0.0010
4 net_1:2 net_1:1 0.0050
5 net_1:3 net_1:2 0.0010
6 net_1:4 net_1:3 0.0050
7 net_1:5 net_1:4 0.0034
8 net_1:5 net_1:6 0.0050
9 net_1:6 net_1:7 0.0010
10 net_1:7 inst_3:A2 0.0050
11 net_1:9 net_1:8 0.0050
12 net_1:9 net_1:10 0.0010
13 net_1:11 net_1:5 0.0027
14 net_1:11 net_1:10 0.0050
*END

*D_NET nx23 0.8420
*CONN
*I inst_4:ZN O
*P nx23 O
*CAP
1 nx23 0.0135
2 inst_4:ZN 0.0198
3 nx23:1 0.0281
4 nx23:2 0.1989
5 nx23:3 0.1989
6 nx23:4 0.1674
7 nx23:5 0.1733
8 nx23:6 0.0211
9 nx23:7 0.0211
*RES
2 inst_4:ZN nx23:1 0.0021
3 nx23:2 nx23:1 0.0050
4 nx23:2 nx23:3 0.0170
5 nx23:4 nx23:3 0.0050
6 nx23:4 nx23:5 0.0176
7 nx23:5 nx23:6 0.0010
8 nx23:7 nx23 0.0010
9 nx23:7 nx23:6 0.0050
*END

*D_NET nx1 1.0619
*CONN
*P nx1 I
*I inst_1:A1 I
*CAP
1 nx1 0.0010
2 inst_1:A1 0.0166
3 nx1:1 0.0109
4 nx1:2 0.0175
5 nx1:3 0.0241
6 nx1:4 0.2872
7 nx1:5 0.2820
8 nx1:6 0.2113
9 nx1:7 0.2113
*RES
2 inst_1:A1 nx1:7 0.0050
3 nx1:1 nx1 0.0010
4 nx1:1 nx1:2 0.0010
5 nx1:3 nx1:2 0.0050
6 nx1:4 nx1:3 0.0010
7 nx1:4 nx1:5 0.0197
8 nx1:6 nx1:5 0.0050
9 nx1:7 nx1:6 0.0180
*END

*D_NET nx7 1.2083
*CONN
*P nx7 I
*I inst_2:A1 I
*CAP
1 nx7 0.0012
2 inst_2:A1 0.0166
3 nx7:1 0.0126
4 nx7:2 0.2643
5 nx7:3 0.2640
6 nx7:4 0.0205
7 nx7:5 0.3146
8 nx7:6 0.3146
*RES
2 nx7 nx7:1 0.0010
3 inst_2:A1 nx7:6 0.0050
4 nx7:2 nx7:1 0.0050
5 nx7:3 nx7:2 0.0362
6 nx7:3 nx7:4 0.0010
7 nx7:5 nx7:4 0.0050
8 nx7:5 nx7:6 0.0210
*END

*D_NET nx3 1.1113
*CONN
*P nx3 I
*I inst_0:A1 I
*I inst_1:A2 I
*CAP
1 nx3 0.0010
2 inst_0:A1 0.0166
3 inst_1:A2 0.0166
4 nx3:1 0.1854
5 nx3:2 0.0202
6 nx3:3 0.0202
7 nx3:4 0.0162
8 nx3:5 0.0162
9 nx3:6 0.0121
10 nx3:7 0.0387
11 nx3:8 0.0387
12 nx3:9 0.0152
13 nx3:10 0.2664
14 nx3:11 0.2664
15 nx3:12 0.1816
*RES
2 nx3 nx3:6 0.0010
3 nx3:1 inst_0:A1 0.0050
4 nx3:1 nx3:12 0.0185
5 nx3:1 nx3:2 0.0050
6 nx3:2 nx3:3 0.0014
7 nx3:3 nx3:4 0.0050
8 nx3:5 inst_1:A2 0.0050
9 nx3:5 nx3:4 0.0010
10 nx3:7 nx3:6 0.0050
11 nx3:7 nx3:8 0.0045
12 nx3:9 nx3:8 0.0050
13 nx3:10 nx3:9 0.0050
14 nx3:10 nx3:11 0.0163
15 nx3:12 nx3:11 0.0050
*END

*D_NET net_2 0.0573
*CONN
*I inst_2:ZN O
*I inst_4:A2 I
*CAP
1 inst_2:ZN 0.0287
2 inst_4:A2 0.0287
*RES
2 inst_2:ZN inst_4:A2 0.0041
*END

*D_NET nx22 1.1382
*CONN
*I inst_5:ZN O
*P nx22 O
*CAP
1 nx22 0.0010
2 inst_5:ZN 0.0201
3 nx22:1 0.0284
4 nx22:2 0.2665
5 nx22:3 0.2665
6 nx22:4 0.2134
7 nx22:5 0.2134
8 nx22:6 0.0152
9 nx22:7 0.0509
10 nx22:8 0.0509
11 nx22:9 0.0121
*RES
2 nx22 nx22:9 0.0010
3 inst_5:ZN nx22:1 0.0041
4 nx22:2 nx22:1 0.0050
5 nx22:3 nx22:2 0.0185
6 nx22:4 nx22:3 0.0050
7 nx22:4 nx22:5 0.0224
8 nx22:6 nx22:5 0.0050
9 nx22:7 nx22:6 0.0050
10 nx22:7 nx22:8 0.0045
11 nx22:9 nx22:8 0.0050
*END

*D_NET nx6 0.8822
*CONN
*P nx6 I
*I inst_0:A2 I
*CAP
1 nx6 0.0012
2 inst_0:A2 0.0166
3 nx6:1 0.0126
4 nx6:2 0.1892
5 nx6:3 0.1892
6 nx6:4 0.2387
7 nx6:5 0.2349
*RES
2 nx6 nx6:1 0.0010
3 inst_0:A2 nx6:5 0.0050
4 nx6:2 nx6:1 0.0050
5 nx6:2 nx6:3 0.0268
6 nx6:4 nx6:3 0.0050
7 nx6:4 nx6:5 0.0210
*END

*D_NET net_0 0.1750
*CONN
*I inst_1:ZN O
*I inst_5:A1 I
*CAP
1 inst_1:ZN 0.0166
2 inst_5:A1 0.0166
3 net_0:1 0.0152
4 net_0:2 0.0557
5 net_0:3 0.0557
6 net_0:4 0.0152
*RES
2 inst_5:A1 net_0:4 0.0050
3 net_0:1 inst_1:ZN 0.0050
4 net_0:2 net_0:1 0.0050
5 net_0:2 net_0:3 0.0034
6 net_0:4 net_0:3 0.0050
*END

*D_NET net_3 0.4105
*CONN
*I inst_3:ZN O
*I inst_4:A1 I
*I inst_5:A2 I
*CAP
1 inst_3:ZN 0.0166
2 inst_4:A1 0.0166
3 inst_5:A2 0.0166
4 net_3:1 0.0152
5 net_3:2 0.1453
6 net_3:3 0.0732
7 net_3:4 0.0161
8 net_3:5 0.0161
9 net_3:6 0.0152
10 net_3:7 0.0796
*RES
2 net_3:1 inst_5:A2 0.0050
3 net_3:2 net_3:1 0.0050
4 net_3:2 net_3:3 0.0068
5 net_3:3 net_3:4 0.0050
6 net_3:4 net_3:5 0.0010
7 net_3:5 inst_4:A1 0.0050
8 net_3:6 inst_3:ZN 0.0050
9 net_3:7 net_3:2 0.0034
10 net_3:7 net_3:6 0.0050
*END

*D_NET nx2 0.9483
*CONN
*P nx2 I
*I inst_3:A1 I
*CAP
1 nx2 0.0152
2 inst_3:A1 0.0166
3 nx2:1 0.1693
4 nx2:2 0.1628
5 nx2:3 0.0511
6 nx2:4 0.0577
7 nx2:5 0.2378
8 nx2:6 0.2378
*RES
2 inst_3:A1 nx2:6 0.0050
3 nx2:1 nx2 0.0050
4 nx2:1 nx2:2 0.0179
5 nx2:2 nx2:3 0.0010
6 nx2:3 nx2:4 0.0054
7 nx2:5 nx2:4 0.0050
8 nx2:5 nx2:6 0.0210
*END

