*SPEF "IEEE 1481-1998"
*DESIGN "changes"
*DATE "Tue Dec 02 20:46:02 2014"
*VENDOR "TAU 2015 Contest"
*PROGRAM "Benchmark Parasitic Generator"
*VERSION "0.0"
*DESIGN_FLOW "NETLIST_TYPE_VERILOG"
*DIVIDER /
*DELIMITER :
*BUS_DELIMITER [ ]
*T_UNIT 1 PS
*C_UNIT 1 FF
*R_UNIT 1 KOHM
*L_UNIT 1 UH

*D_NET net_47 3.0173
*CONN
*I TAUGATE_101:Z O
*I inst_94:A2 I
*I inst_199:A I
*CAP
1 TAUGATE_101:Z 0.2611
2 net_47:1 0.4098
3 net_47:2 0.5009
4 net_47:3 0.2843
5 inst_94:A2 0.2878
6 net_47:4 0.4685
7 net_47:5 0.3070
8 net_47:6 0.3583
9 inst_199:A 0.1395
*RES
2 TAUGATE_101:Z net_47:1 0.1659
3 net_47:1 net_47:2 0.2742
4 net_47:2 net_47:3 0.3494
5 net_47:3 inst_94:A2 0.1485
6 net_47:3 net_47:4 0.0646
7 net_47:4 net_47:5 0.0794
8 net_47:5 net_47:6 0.2161
9 net_47:6 inst_199:A 0.1614
*END

*D_NET net_215 1.8183
*CONN
*I TAUGATE_368:Z O
*I inst_89:A1 I
*CAP
1 TAUGATE_368:Z 0.3755
2 net_215:1 0.4559
3 net_215:2 0.4050
4 net_215:3 0.0154
5 net_215:4 0.1670
6 net_215:5 0.1555
7 inst_89:A1 0.2440
*RES
2 TAUGATE_368:Z net_215:1 0.0332
3 net_215:1 net_215:2 0.0406
4 net_215:2 net_215:3 0.2732
5 net_215:3 net_215:4 0.0073
6 net_215:4 net_215:5 0.1308
7 net_215:5 inst_89:A1 0.1374
*END

*D_NET TAUNET_275 1.3529
*CONN
*I inst_66:ZN O
*I TAUGATE_275:A I
*CAP
1 inst_66:ZN 0.3706
2 TAUNET_275:1 0.4871
3 TAUGATE_275:A 0.4951
*RES
2 inst_66:ZN TAUNET_275:1 0.4125
3 TAUNET_275:1 TAUGATE_275:A 0.0565
*END

*D_NET TAUNET_114 1.5997
*CONN
*I inst_127:ZN O
*I TAUGATE_114:A I
*CAP
1 inst_127:ZN 0.0292
2 TAUNET_114:1 0.4507
3 TAUNET_114:2 0.3356
4 TAUNET_114:3 0.3995
5 TAUGATE_114:A 0.3845
*RES
2 inst_127:ZN TAUNET_114:1 0.4708
3 TAUNET_114:1 TAUNET_114:2 0.3056
4 TAUNET_114:2 TAUNET_114:3 0.3464
5 TAUNET_114:3 TAUGATE_114:A 0.0305
*END

*D_NET net_54 1.9835
*CONN
*I TAUGATE_248:Z O
*I inst_235:A I
*I inst_111:A2 I
*CAP
1 TAUGATE_248:Z 0.4020
2 net_54:1 0.2665
3 net_54:2 0.4354
4 net_54:3 0.1977
5 inst_235:A 0.0788
6 net_54:4 0.2805
7 net_54:5 0.1322
8 inst_111:A2 0.1905
*RES
2 TAUGATE_248:Z net_54:1 0.3276
3 net_54:1 net_54:2 0.3833
4 net_54:2 net_54:3 0.3292
5 net_54:3 inst_235:A 0.0716
6 net_54:2 net_54:4 0.4017
7 net_54:4 net_54:5 0.4680
8 net_54:5 inst_111:A2 0.2976
*END

*D_NET vsync 1.4553
*CONN
*I TAUGATE_313:Z O
*P vsync O
*CAP
1 TAUGATE_313:Z 0.2927
2 vsync:1 0.2211
3 vsync:2 0.1955
4 vsync:3 0.1868
5 vsync:4 0.4889
6 vsync 0.0703
*RES
2 TAUGATE_313:Z vsync:1 0.3298
3 vsync:1 vsync:2 0.4131
4 vsync:2 vsync:3 0.3310
5 vsync:3 vsync:4 0.2621
6 vsync:4 vsync 0.4792
*END

*D_NET TAUNET_232 1.1591
*CONN
*I TAUGATE_31:Z O
*I TAUGATE_232:A I
*CAP
1 TAUGATE_31:Z 0.0717
2 TAUNET_232:1 0.4035
3 TAUNET_232:2 0.0219
4 TAUNET_232:3 0.0830
5 TAUNET_232:4 0.4539
6 TAUGATE_232:A 0.1250
*RES
2 TAUGATE_31:Z TAUNET_232:1 0.3196
3 TAUNET_232:1 TAUNET_232:2 0.4976
4 TAUNET_232:2 TAUNET_232:3 0.3591
5 TAUNET_232:3 TAUNET_232:4 0.2780
6 TAUNET_232:4 TAUGATE_232:A 0.2022
*END

*D_NET net_129 3.7305
*CONN
*I TAUGATE_233:Z O
*I inst_16:A3 I
*I inst_132:A1 I
*CAP
1 TAUGATE_233:Z 0.4382
2 net_129:1 0.4055
3 net_129:2 0.4519
4 net_129:3 0.4658
5 net_129:4 0.3690
6 inst_16:A3 0.4019
7 net_129:5 0.1782
8 net_129:6 0.4734
9 net_129:7 0.0376
10 net_129:8 0.0972
11 net_129:9 0.3594
12 inst_132:A1 0.0525
*RES
2 TAUGATE_233:Z net_129:1 0.0632
3 net_129:1 net_129:2 0.2503
4 net_129:2 net_129:3 0.4700
5 net_129:3 net_129:4 0.3789
6 net_129:4 inst_16:A3 0.3545
7 net_129:1 net_129:5 0.3248
8 net_129:5 net_129:6 0.2597
9 net_129:6 net_129:7 0.1267
10 net_129:7 net_129:8 0.3840
11 net_129:8 net_129:9 0.2434
12 net_129:9 inst_132:A1 0.3726
*END

*D_NET net_98 3.5547
*CONN
*I TAUGATE_376:Z O
*I inst_107:A1 I
*I inst_14:A3 I
*I inst_194:A I
*I inst_120:A2 I
*CAP
1 TAUGATE_376:Z 0.2454
2 net_98:1 0.1921
3 net_98:2 0.1376
4 net_98:3 0.4443
5 net_98:4 0.1288
6 net_98:5 0.3022
7 inst_194:A 0.1405
8 net_98:6 0.3089
9 inst_14:A3 0.0253
10 net_98:7 0.3147
11 net_98:8 0.2761
12 inst_107:A1 0.3643
13 net_98:9 0.1525
14 net_98:10 0.0518
15 net_98:11 0.2548
16 inst_120:A2 0.2154
*RES
2 TAUGATE_376:Z net_98:1 0.0668
3 net_98:1 net_98:2 0.3699
4 net_98:2 net_98:3 0.4131
5 net_98:3 net_98:4 0.4004
6 net_98:4 net_98:5 0.4814
7 net_98:5 inst_194:A 0.1341
8 net_98:5 net_98:6 0.3105
9 net_98:6 inst_14:A3 0.1881
10 net_98:3 net_98:7 0.2288
11 net_98:7 net_98:8 0.0666
12 net_98:8 inst_107:A1 0.3854
13 net_98:7 net_98:9 0.4921
14 net_98:9 net_98:10 0.1648
15 net_98:10 net_98:11 0.1855
16 net_98:11 inst_120:A2 0.0112
*END

*D_NET net_119 1.1059
*CONN
*I TAUGATE_140:Z O
*I inst_11:A3 I
*CAP
1 TAUGATE_140:Z 0.1128
2 net_119:1 0.0917
3 net_119:2 0.4230
4 net_119:3 0.1494
5 inst_11:A3 0.3290
*RES
2 TAUGATE_140:Z net_119:1 0.1620
3 net_119:1 net_119:2 0.0029
4 net_119:2 net_119:3 0.2883
5 net_119:3 inst_11:A3 0.1903
*END

*D_NET TAUNET_356 0.6766
*CONN
*I TAUGATE_36:Z O
*I TAUGATE_356:A I
*CAP
1 TAUGATE_36:Z 0.3484
2 TAUNET_356:1 0.1392
3 TAUGATE_356:A 0.1891
*RES
2 TAUGATE_36:Z TAUNET_356:1 0.0464
3 TAUNET_356:1 TAUGATE_356:A 0.0364
*END

*D_NET net_151 0.6214
*CONN
*I TAUGATE_338:Z O
*I inst_66:A1 I
*CAP
1 TAUGATE_338:Z 0.4104
2 net_151:1 0.0510
3 inst_66:A1 0.1600
*RES
2 TAUGATE_338:Z net_151:1 0.1748
3 net_151:1 inst_66:A1 0.4787
*END

*D_NET net_53 1.6741
*CONN
*I TAUGATE_360:Z O
*I inst_116:A2 I
*CAP
1 TAUGATE_360:Z 0.4606
2 net_53:1 0.4657
3 net_53:2 0.3595
4 net_53:3 0.2471
5 net_53:4 0.0832
6 inst_116:A2 0.0580
*RES
2 TAUGATE_360:Z net_53:1 0.3736
3 net_53:1 net_53:2 0.0395
4 net_53:2 net_53:3 0.3644
5 net_53:3 net_53:4 0.0829
6 net_53:4 inst_116:A2 0.1977
*END

*D_NET TAUNET_103 2.1119
*CONN
*I inst_64:ZN O
*I TAUGATE_103:A I
*CAP
1 inst_64:ZN 0.3877
2 TAUNET_103:1 0.4950
3 TAUNET_103:2 0.0413
4 TAUNET_103:3 0.4651
5 TAUNET_103:4 0.4065
6 TAUGATE_103:A 0.3164
*RES
2 inst_64:ZN TAUNET_103:1 0.3513
3 TAUNET_103:1 TAUNET_103:2 0.1165
4 TAUNET_103:2 TAUNET_103:3 0.0986
5 TAUNET_103:3 TAUNET_103:4 0.2243
6 TAUNET_103:4 TAUGATE_103:A 0.1286
*END

*D_NET TAUNET_402 1.4306
*CONN
*P cnt13 I
*I TAUGATE_402:A I
*CAP
1 cnt13 0.2482
2 TAUNET_402:1 0.1533
3 TAUNET_402:2 0.4091
4 TAUNET_402:3 0.2613
5 TAUGATE_402:A 0.3587
*RES
2 cnt13 TAUNET_402:1 0.1869
3 TAUNET_402:1 TAUNET_402:2 0.4974
4 TAUNET_402:2 TAUNET_402:3 0.3047
5 TAUNET_402:3 TAUGATE_402:A 0.1200
*END

*D_NET net_210 0.5270
*CONN
*I TAUGATE_181:Z O
*I inst_88:A2 I
*CAP
1 TAUGATE_181:Z 0.1210
2 net_210:1 0.1014
3 net_210:2 0.0283
4 inst_88:A2 0.2763
*RES
2 TAUGATE_181:Z net_210:1 0.2945
3 net_210:1 net_210:2 0.3177
4 net_210:2 inst_88:A2 0.2101
*END

*D_NET TAUNET_177 1.4286
*CONN
*I inst_179:ZN O
*I TAUGATE_177:A I
*CAP
1 inst_179:ZN 0.2046
2 TAUNET_177:1 0.1317
3 TAUNET_177:2 0.3617
4 TAUNET_177:3 0.0856
5 TAUNET_177:4 0.3629
6 TAUGATE_177:A 0.2821
*RES
2 inst_179:ZN TAUNET_177:1 0.3900
3 TAUNET_177:1 TAUNET_177:2 0.0557
4 TAUNET_177:2 TAUNET_177:3 0.1253
5 TAUNET_177:3 TAUNET_177:4 0.2716
6 TAUNET_177:4 TAUGATE_177:A 0.3735
*END

*D_NET net_168 3.1644
*CONN
*I TAUGATE_65:Z O
*I inst_78:A1 I
*I inst_7:A1 I
*CAP
1 TAUGATE_65:Z 0.3323
2 net_168:1 0.0362
3 net_168:2 0.4966
4 net_168:3 0.4101
5 inst_78:A1 0.2702
6 net_168:4 0.3090
7 net_168:5 0.3972
8 net_168:6 0.4228
9 net_168:7 0.2443
10 inst_7:A1 0.2458
*RES
2 TAUGATE_65:Z net_168:1 0.2135
3 net_168:1 net_168:2 0.0419
4 net_168:2 net_168:3 0.2773
5 net_168:3 inst_78:A1 0.0903
6 net_168:1 net_168:4 0.3734
7 net_168:4 net_168:5 0.1567
8 net_168:5 net_168:6 0.1247
9 net_168:6 net_168:7 0.2439
10 net_168:7 inst_7:A1 0.2588
*END

*D_NET TAUNET_31 0.9945
*CONN
*I TAUGATE_155:Z O
*I TAUGATE_31:A I
*CAP
1 TAUGATE_155:Z 0.3528
2 TAUNET_31:1 0.4436
3 TAUGATE_31:A 0.1981
*RES
2 TAUGATE_155:Z TAUNET_31:1 0.3275
3 TAUNET_31:1 TAUGATE_31:A 0.0169
*END

*D_NET TAUNET_91 1.2825
*CONN
*P cnt10 I
*I TAUGATE_91:A I
*CAP
1 cnt10 0.4684
2 TAUNET_91:1 0.0579
3 TAUNET_91:2 0.0423
4 TAUNET_91:3 0.2861
5 TAUGATE_91:A 0.4278
*RES
2 cnt10 TAUNET_91:1 0.3875
3 TAUNET_91:1 TAUNET_91:2 0.4796
4 TAUNET_91:2 TAUNET_91:3 0.3740
5 TAUNET_91:3 TAUGATE_91:A 0.1554
*END

*D_NET net_259 2.4087
*CONN
*I TAUGATE_234:Z O
*I inst_165:A I
*CAP
1 TAUGATE_234:Z 0.4380
2 net_259:1 0.4990
3 net_259:2 0.2134
4 net_259:3 0.1115
5 net_259:4 0.4947
6 net_259:5 0.3666
7 inst_165:A 0.2854
*RES
2 TAUGATE_234:Z net_259:1 0.4464
3 net_259:1 net_259:2 0.2438
4 net_259:2 net_259:3 0.2969
5 net_259:3 net_259:4 0.3091
6 net_259:4 net_259:5 0.5006
7 net_259:5 inst_165:A 0.2264
*END

*D_NET TAUNET_208 1.1017
*CONN
*I inst_80:ZN O
*I TAUGATE_208:A I
*CAP
1 inst_80:ZN 0.2044
2 TAUNET_208:1 0.3886
3 TAUNET_208:2 0.2618
4 TAUGATE_208:A 0.2468
*RES
2 inst_80:ZN TAUNET_208:1 0.4002
3 TAUNET_208:1 TAUNET_208:2 0.3652
4 TAUNET_208:2 TAUGATE_208:A 0.1857
*END

*D_NET TAUNET_9 1.1556
*CONN
*I TAUGATE_70:Z O
*I TAUGATE_9:A I
*CAP
1 TAUGATE_70:Z 0.0882
2 TAUNET_9:1 0.2715
3 TAUNET_9:2 0.0199
4 TAUNET_9:3 0.4145
5 TAUNET_9:4 0.1459
6 TAUNET_9:5 0.1130
7 TAUGATE_9:A 0.1026
*RES
2 TAUGATE_70:Z TAUNET_9:1 0.1939
3 TAUNET_9:1 TAUNET_9:2 0.1095
4 TAUNET_9:2 TAUNET_9:3 0.0212
5 TAUNET_9:3 TAUNET_9:4 0.1417
6 TAUNET_9:4 TAUNET_9:5 0.2190
7 TAUNET_9:5 TAUGATE_9:A 0.4826
*END

*D_NET TAUNET_128 1.4876
*CONN
*I TAUGATE_17:Z O
*I TAUGATE_128:A I
*CAP
1 TAUGATE_17:Z 0.4033
2 TAUNET_128:1 0.2540
3 TAUNET_128:2 0.0526
4 TAUNET_128:3 0.2388
5 TAUNET_128:4 0.1787
6 TAUGATE_128:A 0.3603
*RES
2 TAUGATE_17:Z TAUNET_128:1 0.0603
3 TAUNET_128:1 TAUNET_128:2 0.0863
4 TAUNET_128:2 TAUNET_128:3 0.3102
5 TAUNET_128:3 TAUNET_128:4 0.1239
6 TAUNET_128:4 TAUGATE_128:A 0.2473
*END

*D_NET TAUNET_161 1.8437
*CONN
*I inst_264:ZN O
*I TAUGATE_161:A I
*CAP
1 inst_264:ZN 0.4935
2 TAUNET_161:1 0.3995
3 TAUNET_161:2 0.4441
4 TAUNET_161:3 0.4218
5 TAUGATE_161:A 0.0848
*RES
2 inst_264:ZN TAUNET_161:1 0.0266
3 TAUNET_161:1 TAUNET_161:2 0.0274
4 TAUNET_161:2 TAUNET_161:3 0.4218
5 TAUNET_161:3 TAUGATE_161:A 0.2061
*END

*D_NET TAUNET_249 1.6754
*CONN
*I inst_73:ZN O
*I TAUGATE_249:A I
*CAP
1 inst_73:ZN 0.4583
2 TAUNET_249:1 0.0145
3 TAUNET_249:2 0.0725
4 TAUNET_249:3 0.4492
5 TAUNET_249:4 0.3124
6 TAUGATE_249:A 0.3685
*RES
2 inst_73:ZN TAUNET_249:1 0.4317
3 TAUNET_249:1 TAUNET_249:2 0.1801
4 TAUNET_249:2 TAUNET_249:3 0.2826
5 TAUNET_249:3 TAUNET_249:4 0.3420
6 TAUNET_249:4 TAUGATE_249:A 0.0965
*END

*D_NET net_187 1.1961
*CONN
*I TAUGATE_383:Z O
*I inst_56:A2 I
*CAP
1 TAUGATE_383:Z 0.1304
2 net_187:1 0.4634
3 net_187:2 0.2869
4 net_187:3 0.1646
5 net_187:4 0.1182
6 inst_56:A2 0.0327
*RES
2 TAUGATE_383:Z net_187:1 0.0608
3 net_187:1 net_187:2 0.3721
4 net_187:2 net_187:3 0.4648
5 net_187:3 net_187:4 0.2376
6 net_187:4 inst_56:A2 0.1146
*END

*D_NET net_111 3.0648
*CONN
*I TAUGATE_213:Z O
*I inst_244:A I
*I inst_76:A3 I
*I inst_127:A1 I
*I inst_45:A1 I
*I inst_120:A1 I
*CAP
1 TAUGATE_213:Z 0.1439
2 net_111:1 0.2502
3 inst_45:A1 0.2506
4 net_111:2 0.2747
5 inst_76:A3 0.1704
6 net_111:3 0.3621
7 net_111:4 0.1254
8 inst_127:A1 0.3490
9 net_111:5 0.3990
10 net_111:6 0.0185
11 net_111:7 0.3777
12 inst_244:A 0.2437
13 net_111:8 0.0917
14 inst_120:A1 0.0078
*RES
2 TAUGATE_213:Z net_111:1 0.4486
3 net_111:1 inst_45:A1 0.0641
4 net_111:1 net_111:2 0.2303
5 net_111:2 inst_76:A3 0.0121
6 net_111:1 net_111:3 0.4751
7 net_111:3 net_111:4 0.3195
8 net_111:4 inst_127:A1 0.4748
9 net_111:2 net_111:5 0.3641
10 net_111:5 net_111:6 0.1411
11 net_111:6 net_111:7 0.2452
12 net_111:7 inst_244:A 0.2723
13 net_111:3 net_111:8 0.0227
14 net_111:8 inst_120:A1 0.0264
*END

*D_NET TAUNET_192 0.9773
*CONN
*I TAUGATE_14:Z O
*I TAUGATE_192:A I
*CAP
1 TAUGATE_14:Z 0.1906
2 TAUNET_192:1 0.0937
3 TAUNET_192:2 0.2944
4 TAUGATE_192:A 0.3987
*RES
2 TAUGATE_14:Z TAUNET_192:1 0.0209
3 TAUNET_192:1 TAUNET_192:2 0.1182
4 TAUNET_192:2 TAUGATE_192:A 0.1067
*END

*D_NET net_90 3.7134
*CONN
*I TAUGATE_190:Z O
*I inst_4:A2 I
*I inst_71:A3 I
*CAP
1 TAUGATE_190:Z 0.3672
2 net_90:1 0.1157
3 net_90:2 0.1901
4 net_90:3 0.2138
5 net_90:4 0.5008
6 net_90:5 0.2979
7 inst_71:A3 0.3428
8 net_90:6 0.3676
9 net_90:7 0.1603
10 net_90:8 0.4423
11 net_90:9 0.1159
12 net_90:10 0.4527
13 inst_4:A2 0.1465
*RES
2 TAUGATE_190:Z net_90:1 0.2325
3 net_90:1 net_90:2 0.2733
4 net_90:2 net_90:3 0.1266
5 net_90:3 net_90:4 0.3814
6 net_90:4 net_90:5 0.1363
7 net_90:5 inst_71:A3 0.3277
8 net_90:4 net_90:6 0.1463
9 net_90:6 net_90:7 0.4621
10 net_90:7 net_90:8 0.4065
11 net_90:8 net_90:9 0.0227
12 net_90:9 net_90:10 0.2236
13 net_90:10 inst_4:A2 0.4114
*END

*D_NET TAUNET_151 0.9678
*CONN
*I TAUGATE_7:Z O
*I TAUGATE_151:A I
*CAP
1 TAUGATE_7:Z 0.1546
2 TAUNET_151:1 0.4367
3 TAUNET_151:2 0.3452
4 TAUGATE_151:A 0.0313
*RES
2 TAUGATE_7:Z TAUNET_151:1 0.1217
3 TAUNET_151:1 TAUNET_151:2 0.0111
4 TAUNET_151:2 TAUGATE_151:A 0.1222
*END

*D_NET net_225 5.7600
*CONN
*I TAUGATE_385:Z O
*I inst_134:A2 I
*I inst_70:A2 I
*I inst_245:A I
*I inst_262:A2 I
*I inst_48:A2 I
*CAP
1 TAUGATE_385:Z 0.1692
2 net_225:1 0.4978
3 net_225:2 0.2563
4 net_225:3 0.2595
5 net_225:4 0.2603
6 net_225:5 0.2874
7 inst_134:A2 0.3072
8 net_225:6 0.4796
9 net_225:7 0.3806
10 net_225:8 0.4946
11 inst_70:A2 0.4608
12 net_225:9 0.4103
13 net_225:10 0.0845
14 inst_245:A 0.1888
15 net_225:11 0.2069
16 inst_262:A2 0.0491
17 net_225:12 0.1831
18 net_225:13 0.4110
19 net_225:14 0.0191
20 inst_48:A2 0.3538
*RES
2 TAUGATE_385:Z net_225:1 0.2768
3 net_225:1 net_225:2 0.1679
4 net_225:2 net_225:3 0.2053
5 net_225:3 net_225:4 0.2140
6 net_225:4 net_225:5 0.3306
7 net_225:5 inst_134:A2 0.1569
8 net_225:3 net_225:6 0.4692
9 net_225:6 net_225:7 0.4766
10 net_225:7 net_225:8 0.0589
11 net_225:8 inst_70:A2 0.0962
12 net_225:5 net_225:9 0.1436
13 net_225:9 net_225:10 0.1762
14 net_225:10 inst_245:A 0.4748
15 net_225:2 net_225:11 0.4137
16 net_225:11 inst_262:A2 0.3046
17 net_225:8 net_225:12 0.4300
18 net_225:12 net_225:13 0.3629
19 net_225:13 net_225:14 0.0787
20 net_225:14 inst_48:A2 0.2007
*END

*D_NET TAUNET_141 2.1629
*CONN
*I inst_175:ZN O
*I TAUGATE_141:A I
*CAP
1 inst_175:ZN 0.4025
2 TAUNET_141:1 0.3538
3 TAUNET_141:2 0.4649
4 TAUNET_141:3 0.0482
5 TAUNET_141:4 0.1062
6 TAUNET_141:5 0.2963
7 TAUGATE_141:A 0.4911
*RES
2 inst_175:ZN TAUNET_141:1 0.2002
3 TAUNET_141:1 TAUNET_141:2 0.2573
4 TAUNET_141:2 TAUNET_141:3 0.3761
5 TAUNET_141:3 TAUNET_141:4 0.0616
6 TAUNET_141:4 TAUNET_141:5 0.4298
7 TAUNET_141:5 TAUGATE_141:A 0.2857
*END

*D_NET net_85 0.6543
*CONN
*I TAUGATE_321:Z O
*I inst_261:A4 I
*CAP
1 TAUGATE_321:Z 0.0470
2 net_85:1 0.1738
3 inst_261:A4 0.4336
*RES
2 TAUGATE_321:Z net_85:1 0.4556
3 net_85:1 inst_261:A4 0.1284
*END

*D_NET TAUNET_350 1.6488
*CONN
*I TAUGATE_30:Z O
*I TAUGATE_350:A I
*CAP
1 TAUGATE_30:Z 0.1731
2 TAUNET_350:1 0.3095
3 TAUNET_350:2 0.4895
4 TAUNET_350:3 0.4033
5 TAUGATE_350:A 0.2734
*RES
2 TAUGATE_30:Z TAUNET_350:1 0.3461
3 TAUNET_350:1 TAUNET_350:2 0.3729
4 TAUNET_350:2 TAUNET_350:3 0.0418
5 TAUNET_350:3 TAUGATE_350:A 0.3671
*END

*D_NET net_124 1.1766
*CONN
*I TAUGATE_157:Z O
*I inst_71:A1 I
*CAP
1 TAUGATE_157:Z 0.1458
2 net_124:1 0.0683
3 net_124:2 0.2135
4 net_124:3 0.4484
5 net_124:4 0.1379
6 net_124:5 0.1139
7 inst_71:A1 0.0489
*RES
2 TAUGATE_157:Z net_124:1 0.0861
3 net_124:1 net_124:2 0.1477
4 net_124:2 net_124:3 0.4806
5 net_124:3 net_124:4 0.3473
6 net_124:4 net_124:5 0.1114
7 net_124:5 inst_71:A1 0.0198
*END

*D_NET net_252 1.3546
*CONN
*I TAUGATE_146:Z O
*I inst_80:A3 I
*CAP
1 TAUGATE_146:Z 0.1100
2 net_252:1 0.3290
3 net_252:2 0.1592
4 net_252:3 0.4236
5 inst_80:A3 0.3328
*RES
2 TAUGATE_146:Z net_252:1 0.1906
3 net_252:1 net_252:2 0.5003
4 net_252:2 net_252:3 0.4347
5 net_252:3 inst_80:A3 0.3044
*END

*D_NET net_240 1.5228
*CONN
*I TAUGATE_252:Z O
*I inst_88:A3 I
*CAP
1 TAUGATE_252:Z 0.0096
2 net_240:1 0.2377
3 net_240:2 0.2571
4 net_240:3 0.3610
5 net_240:4 0.0042
6 net_240:5 0.2690
7 inst_88:A3 0.3841
*RES
2 TAUGATE_252:Z net_240:1 0.3400
3 net_240:1 net_240:2 0.2352
4 net_240:2 net_240:3 0.3112
5 net_240:3 net_240:4 0.1345
6 net_240:4 net_240:5 0.4134
7 net_240:5 inst_88:A3 0.0741
*END

*D_NET net_160 0.9047
*CONN
*I TAUGATE_191:Z O
*I inst_68:A1 I
*CAP
1 TAUGATE_191:Z 0.4891
2 net_160:1 0.2122
3 inst_68:A1 0.2034
*RES
2 TAUGATE_191:Z net_160:1 0.1253
3 net_160:1 inst_68:A1 0.2112
*END

*D_NET TAUNET_201 0.7145
*CONN
*I inst_106:ZN O
*I TAUGATE_201:A I
*CAP
1 inst_106:ZN 0.1106
2 TAUNET_201:1 0.2644
3 TAUGATE_201:A 0.3395
*RES
2 inst_106:ZN TAUNET_201:1 0.4160
3 TAUNET_201:1 TAUGATE_201:A 0.1311
*END

*D_NET TAUNET_87 0.5652
*CONN
*I inst_245:ZN O
*I TAUGATE_87:A I
*CAP
1 inst_245:ZN 0.0535
2 TAUNET_87:1 0.2939
3 TAUGATE_87:A 0.2177
*RES
2 inst_245:ZN TAUNET_87:1 0.0520
3 TAUNET_87:1 TAUGATE_87:A 0.1787
*END

*D_NET TAUNET_361 1.2588
*CONN
*I TAUGATE_10:Z O
*I TAUGATE_361:A I
*CAP
1 TAUGATE_10:Z 0.2308
2 TAUNET_361:1 0.4154
3 TAUNET_361:2 0.4205
4 TAUGATE_361:A 0.1921
*RES
2 TAUGATE_10:Z TAUNET_361:1 0.3303
3 TAUNET_361:1 TAUNET_361:2 0.0500
4 TAUNET_361:2 TAUGATE_361:A 0.3450
*END

*D_NET TAUNET_72 1.3816
*CONN
*I inst_165:ZN O
*I TAUGATE_72:A I
*CAP
1 inst_165:ZN 0.2397
2 TAUNET_72:1 0.0450
3 TAUNET_72:2 0.3586
4 TAUNET_72:3 0.1804
5 TAUNET_72:4 0.2132
6 TAUGATE_72:A 0.3448
*RES
2 inst_165:ZN TAUNET_72:1 0.2539
3 TAUNET_72:1 TAUNET_72:2 0.0169
4 TAUNET_72:2 TAUNET_72:3 0.2910
5 TAUNET_72:3 TAUNET_72:4 0.3418
6 TAUNET_72:4 TAUGATE_72:A 0.0277
*END

*D_NET TAUNET_398 0.7138
*CONN
*I inst_51:ZN O
*I TAUGATE_398:A I
*CAP
1 inst_51:ZN 0.0700
2 TAUNET_398:1 0.4916
3 TAUNET_398:2 0.0258
4 TAUNET_398:3 0.0722
5 TAUNET_398:4 0.0268
6 TAUGATE_398:A 0.0274
*RES
2 inst_51:ZN TAUNET_398:1 0.0955
3 TAUNET_398:1 TAUNET_398:2 0.0758
4 TAUNET_398:2 TAUNET_398:3 0.0730
5 TAUNET_398:3 TAUNET_398:4 0.2996
6 TAUNET_398:4 TAUGATE_398:A 0.1500
*END

*D_NET net_4 1.1459
*CONN
*I TAUGATE_170:Z O
*I inst_28:A1 I
*CAP
1 TAUGATE_170:Z 0.0605
2 net_4:1 0.4347
3 net_4:2 0.2976
4 inst_28:A1 0.3531
*RES
2 TAUGATE_170:Z net_4:1 0.0316
3 net_4:1 net_4:2 0.1823
4 net_4:2 inst_28:A1 0.0755
*END

*D_NET TAUNET_134 1.1637
*CONN
*I inst_265:ZN O
*I TAUGATE_134:A I
*CAP
1 inst_265:ZN 0.3515
2 TAUNET_134:1 0.4269
3 TAUNET_134:2 0.0493
4 TAUNET_134:3 0.0341
5 TAUGATE_134:A 0.3020
*RES
2 inst_265:ZN TAUNET_134:1 0.3389
3 TAUNET_134:1 TAUNET_134:2 0.4000
4 TAUNET_134:2 TAUNET_134:3 0.0188
5 TAUNET_134:3 TAUGATE_134:A 0.4709
*END

*D_NET TAUNET_284 0.8262
*CONN
*I inst_128:ZN O
*I TAUGATE_284:A I
*CAP
1 inst_128:ZN 0.0122
2 TAUNET_284:1 0.0936
3 TAUNET_284:2 0.3051
4 TAUNET_284:3 0.1197
5 TAUGATE_284:A 0.2956
*RES
2 inst_128:ZN TAUNET_284:1 0.2210
3 TAUNET_284:1 TAUNET_284:2 0.0970
4 TAUNET_284:2 TAUNET_284:3 0.2798
5 TAUNET_284:3 TAUGATE_284:A 0.3150
*END

*D_NET TAUNET_386 1.2664
*CONN
*I TAUGATE_29:Z O
*I TAUGATE_386:A I
*CAP
1 TAUGATE_29:Z 0.2108
2 TAUNET_386:1 0.0161
3 TAUNET_386:2 0.2047
4 TAUNET_386:3 0.3729
5 TAUNET_386:4 0.0610
6 TAUGATE_386:A 0.4010
*RES
2 TAUGATE_29:Z TAUNET_386:1 0.2910
3 TAUNET_386:1 TAUNET_386:2 0.3768
4 TAUNET_386:2 TAUNET_386:3 0.3083
5 TAUNET_386:3 TAUNET_386:4 0.1250
6 TAUNET_386:4 TAUGATE_386:A 0.3526
*END

*D_NET TAUNET_267 1.6292
*CONN
*I inst_228:ZN O
*I TAUGATE_267:A I
*CAP
1 inst_228:ZN 0.3144
2 TAUNET_267:1 0.0820
3 TAUNET_267:2 0.2174
4 TAUNET_267:3 0.3638
5 TAUNET_267:4 0.4097
6 TAUGATE_267:A 0.2418
*RES
2 inst_228:ZN TAUNET_267:1 0.4080
3 TAUNET_267:1 TAUNET_267:2 0.3118
4 TAUNET_267:2 TAUNET_267:3 0.4981
5 TAUNET_267:3 TAUNET_267:4 0.3134
6 TAUNET_267:4 TAUGATE_267:A 0.4059
*END

*D_NET TAUNET_362 0.9494
*CONN
*P cnt284 I
*I TAUGATE_362:A I
*CAP
1 cnt284 0.0910
2 TAUNET_362:1 0.3093
3 TAUNET_362:2 0.3342
4 TAUGATE_362:A 0.2150
*RES
2 cnt284 TAUNET_362:1 0.0109
3 TAUNET_362:1 TAUNET_362:2 0.1830
4 TAUNET_362:2 TAUGATE_362:A 0.2298
*END

*D_NET TAUNET_44 0.1587
*CONN
*I TAUGATE_317:Z O
*I TAUGATE_44:A I
*CAP
1 TAUGATE_317:Z 0.0044
2 TAUNET_44:1 0.0476
3 TAUNET_44:2 0.0521
4 TAUGATE_44:A 0.0546
*RES
2 TAUGATE_317:Z TAUNET_44:1 0.0043
3 TAUNET_44:1 TAUNET_44:2 0.2737
4 TAUNET_44:2 TAUGATE_44:A 0.4724
*END

*D_NET TAUNET_207 1.0994
*CONN
*I TAUGATE_47:Z O
*I TAUGATE_207:A I
*CAP
1 TAUGATE_47:Z 0.2426
2 TAUNET_207:1 0.2784
3 TAUNET_207:2 0.2008
4 TAUGATE_207:A 0.3776
*RES
2 TAUGATE_47:Z TAUNET_207:1 0.2937
3 TAUNET_207:1 TAUNET_207:2 0.0093
4 TAUNET_207:2 TAUGATE_207:A 0.2822
*END

*D_NET TAUNET_373 1.0927
*CONN
*I inst_130:ZN O
*I TAUGATE_373:A I
*CAP
1 inst_130:ZN 0.0309
2 TAUNET_373:1 0.3809
3 TAUNET_373:2 0.3567
4 TAUGATE_373:A 0.3242
*RES
2 inst_130:ZN TAUNET_373:1 0.2336
3 TAUNET_373:1 TAUNET_373:2 0.3863
4 TAUNET_373:2 TAUGATE_373:A 0.2365
*END

*D_NET net_35 1.1858
*CONN
*I TAUGATE_119:Z O
*I inst_74:A3 I
*CAP
1 TAUGATE_119:Z 0.3572
2 net_35:1 0.2185
3 net_35:2 0.2266
4 net_35:3 0.2538
5 inst_74:A3 0.1297
*RES
2 TAUGATE_119:Z net_35:1 0.4791
3 net_35:1 net_35:2 0.2417
4 net_35:2 net_35:3 0.2444
5 net_35:3 inst_74:A3 0.4262
*END

*D_NET net_16 1.0967
*CONN
*I TAUGATE_75:Z O
*I inst_117:A1 I
*CAP
1 TAUGATE_75:Z 0.3015
2 net_16:1 0.3035
3 net_16:2 0.4053
4 inst_117:A1 0.0863
*RES
2 TAUGATE_75:Z net_16:1 0.2362
3 net_16:1 net_16:2 0.1365
4 net_16:2 inst_117:A1 0.0277
*END

*D_NET TAUNET_56 0.8486
*CONN
*I TAUGATE_339:Z O
*I TAUGATE_56:A I
*CAP
1 TAUGATE_339:Z 0.2912
2 TAUNET_56:1 0.3711
3 TAUNET_56:2 0.0512
4 TAUGATE_56:A 0.1351
*RES
2 TAUGATE_339:Z TAUNET_56:1 0.0984
3 TAUNET_56:1 TAUNET_56:2 0.0368
4 TAUNET_56:2 TAUGATE_56:A 0.4376
*END

*D_NET net_193 1.3959
*CONN
*I TAUGATE_301:Z O
*I inst_68:A4 I
*CAP
1 TAUGATE_301:Z 0.1283
2 net_193:1 0.3234
3 net_193:2 0.4610
4 inst_68:A4 0.4832
*RES
2 TAUGATE_301:Z net_193:1 0.2776
3 net_193:1 net_193:2 0.3781
4 net_193:2 inst_68:A4 0.3766
*END

*D_NET net_239 1.4006
*CONN
*I TAUGATE_150:Z O
*I inst_88:A1 I
*CAP
1 TAUGATE_150:Z 0.3877
2 net_239:1 0.3738
3 net_239:2 0.4556
4 inst_88:A1 0.1835
*RES
2 TAUGATE_150:Z net_239:1 0.0020
3 net_239:1 net_239:2 0.2614
4 net_239:2 inst_88:A1 0.3010
*END

*D_NET net_257 1.0435
*CONN
*I TAUGATE_223:Z O
*I inst_158:A1 I
*CAP
1 TAUGATE_223:Z 0.4372
2 net_257:1 0.1153
3 net_257:2 0.3810
4 inst_158:A1 0.1100
*RES
2 TAUGATE_223:Z net_257:1 0.1662
3 net_257:1 net_257:2 0.3178
4 net_257:2 inst_158:A1 0.2541
*END

*D_NET net_233 1.5558
*CONN
*I TAUGATE_290:Z O
*I inst_258:D I
*CAP
1 TAUGATE_290:Z 0.4625
2 net_233:1 0.0981
3 net_233:2 0.3461
4 net_233:3 0.2382
5 inst_258:D 0.4109
*RES
2 TAUGATE_290:Z net_233:1 0.0945
3 net_233:1 net_233:2 0.2326
4 net_233:2 net_233:3 0.0121
5 net_233:3 inst_258:D 0.2674
*END

*D_NET net_120 2.5547
*CONN
*I TAUGATE_268:Z O
*I inst_97:A1 I
*I inst_268:A2 I
*CAP
1 TAUGATE_268:Z 0.0414
2 net_120:1 0.1970
3 net_120:2 0.0138
4 net_120:3 0.4527
5 inst_97:A1 0.3131
6 net_120:4 0.3736
7 net_120:5 0.3306
8 net_120:6 0.3042
9 net_120:7 0.1317
10 net_120:8 0.1481
11 inst_268:A2 0.2485
*RES
2 TAUGATE_268:Z net_120:1 0.4392
3 net_120:1 net_120:2 0.4048
4 net_120:2 net_120:3 0.0368
5 net_120:3 inst_97:A1 0.3283
6 net_120:2 net_120:4 0.2201
7 net_120:4 net_120:5 0.2966
8 net_120:5 net_120:6 0.3013
9 net_120:6 net_120:7 0.0758
10 net_120:7 net_120:8 0.0262
11 net_120:8 inst_268:A2 0.3812
*END

*D_NET TAUNET_346 0.5106
*CONN
*I TAUGATE_8:Z O
*I TAUGATE_346:A I
*CAP
1 TAUGATE_8:Z 0.1550
2 TAUNET_346:1 0.1418
3 TAUGATE_346:A 0.2138
*RES
2 TAUGATE_8:Z TAUNET_346:1 0.3805
3 TAUNET_346:1 TAUGATE_346:A 0.2523
*END

*D_NET TAUNET_142 1.6754
*CONN
*I inst_90:ZN O
*I TAUGATE_142:A I
*CAP
1 inst_90:ZN 0.4938
2 TAUNET_142:1 0.2131
3 TAUNET_142:2 0.3201
4 TAUNET_142:3 0.0320
5 TAUNET_142:4 0.2786
6 TAUGATE_142:A 0.3378
*RES
2 inst_90:ZN TAUNET_142:1 0.4364
3 TAUNET_142:1 TAUNET_142:2 0.2454
4 TAUNET_142:2 TAUNET_142:3 0.4527
5 TAUNET_142:3 TAUNET_142:4 0.2663
6 TAUNET_142:4 TAUGATE_142:A 0.3641
*END

*D_NET TAUNET_211 1.5675
*CONN
*I TAUGATE_33:Z O
*I TAUGATE_211:A I
*CAP
1 TAUGATE_33:Z 0.2701
2 TAUNET_211:1 0.4105
3 TAUNET_211:2 0.3004
4 TAUNET_211:3 0.3665
5 TAUNET_211:4 0.1341
6 TAUGATE_211:A 0.0859
*RES
2 TAUGATE_33:Z TAUNET_211:1 0.1706
3 TAUNET_211:1 TAUNET_211:2 0.3812
4 TAUNET_211:2 TAUNET_211:3 0.0751
5 TAUNET_211:3 TAUNET_211:4 0.1227
6 TAUNET_211:4 TAUGATE_211:A 0.0294
*END

*D_NET net_201 2.1109
*CONN
*I TAUGATE_151:Z O
*I inst_262:A1 I
*CAP
1 TAUGATE_151:Z 0.3552
2 net_201:1 0.1840
3 net_201:2 0.4010
4 net_201:3 0.3573
5 net_201:4 0.4559
6 inst_262:A1 0.3575
*RES
2 TAUGATE_151:Z net_201:1 0.1715
3 net_201:1 net_201:2 0.3050
4 net_201:2 net_201:3 0.3594
5 net_201:3 net_201:4 0.4902
6 net_201:4 inst_262:A1 0.4716
*END

*D_NET net_109 0.8507
*CONN
*I TAUGATE_364:Z O
*I inst_269:A2 I
*CAP
1 TAUGATE_364:Z 0.1762
2 net_109:1 0.1660
3 net_109:2 0.2177
4 inst_269:A2 0.2908
*RES
2 TAUGATE_364:Z net_109:1 0.3318
3 net_109:1 net_109:2 0.3308
4 net_109:2 inst_269:A2 0.4080
*END

*D_NET TAUNET_221 0.3444
*CONN
*I inst_188:ZN O
*I TAUGATE_221:A I
*CAP
1 inst_188:ZN 0.1932
2 TAUNET_221:1 0.0053
3 TAUGATE_221:A 0.1459
*RES
2 inst_188:ZN TAUNET_221:1 0.0437
3 TAUNET_221:1 TAUGATE_221:A 0.4598
*END

*D_NET net_65 3.3817
*CONN
*I TAUGATE_330:Z O
*I inst_26:A1 I
*I inst_254:A I
*CAP
1 TAUGATE_330:Z 0.2033
2 net_65:1 0.4574
3 net_65:2 0.4683
4 net_65:3 0.1543
5 net_65:4 0.4873
6 inst_254:A 0.1669
7 net_65:5 0.4210
8 net_65:6 0.2594
9 net_65:7 0.3565
10 inst_26:A1 0.4074
*RES
2 TAUGATE_330:Z net_65:1 0.4800
3 net_65:1 net_65:2 0.4518
4 net_65:2 net_65:3 0.0570
5 net_65:3 net_65:4 0.4909
6 net_65:4 inst_254:A 0.0572
7 net_65:1 net_65:5 0.4309
8 net_65:5 net_65:6 0.4474
9 net_65:6 net_65:7 0.2931
10 net_65:7 inst_26:A1 0.2848
*END

*D_NET net_80 2.6605
*CONN
*I TAUGATE_256:Z O
*I inst_242:A I
*I inst_128:A2 I
*CAP
1 TAUGATE_256:Z 0.3320
2 net_80:1 0.3663
3 net_80:2 0.1512
4 net_80:3 0.1368
5 net_80:4 0.4493
6 inst_242:A 0.4663
7 net_80:5 0.3075
8 net_80:6 0.0604
9 inst_128:A2 0.3908
*RES
2 TAUGATE_256:Z net_80:1 0.2866
3 net_80:1 net_80:2 0.1873
4 net_80:2 net_80:3 0.1599
5 net_80:3 net_80:4 0.3589
6 net_80:4 inst_242:A 0.4697
7 net_80:3 net_80:5 0.2921
8 net_80:5 net_80:6 0.4162
9 net_80:6 inst_128:A2 0.1285
*END

*D_NET TAUNET_81 1.1235
*CONN
*I inst_217:ZN O
*I TAUGATE_81:A I
*CAP
1 inst_217:ZN 0.3511
2 TAUNET_81:1 0.3010
3 TAUNET_81:2 0.1515
4 TAUNET_81:3 0.0492
5 TAUGATE_81:A 0.2707
*RES
2 inst_217:ZN TAUNET_81:1 0.0711
3 TAUNET_81:1 TAUNET_81:2 0.2365
4 TAUNET_81:2 TAUNET_81:3 0.0021
5 TAUNET_81:3 TAUGATE_81:A 0.2080
*END

*D_NET TAUNET_357 2.0999
*CONN
*I inst_4:ZN O
*I TAUGATE_357:A I
*CAP
1 inst_4:ZN 0.4886
2 TAUNET_357:1 0.4404
3 TAUNET_357:2 0.3187
4 TAUNET_357:3 0.4272
5 TAUNET_357:4 0.0224
6 TAUGATE_357:A 0.4026
*RES
2 inst_4:ZN TAUNET_357:1 0.2784
3 TAUNET_357:1 TAUNET_357:2 0.1803
4 TAUNET_357:2 TAUNET_357:3 0.0882
5 TAUNET_357:3 TAUNET_357:4 0.2924
6 TAUNET_357:4 TAUGATE_357:A 0.4780
*END

*D_NET TAUNET_189 1.0540
*CONN
*I TAUGATE_23:Z O
*I TAUGATE_189:A I
*CAP
1 TAUGATE_23:Z 0.1182
2 TAUNET_189:1 0.1530
3 TAUNET_189:2 0.2582
4 TAUNET_189:3 0.4484
5 TAUGATE_189:A 0.0762
*RES
2 TAUGATE_23:Z TAUNET_189:1 0.1986
3 TAUNET_189:1 TAUNET_189:2 0.3922
4 TAUNET_189:2 TAUNET_189:3 0.3950
5 TAUNET_189:3 TAUGATE_189:A 0.2666
*END

*D_NET TAUNET_154 2.0823
*CONN
*P cnt261 I
*I TAUGATE_154:A I
*CAP
1 cnt261 0.4671
2 TAUNET_154:1 0.3936
3 TAUNET_154:2 0.4880
4 TAUNET_154:3 0.4169
5 TAUGATE_154:A 0.3167
*RES
2 cnt261 TAUNET_154:1 0.3376
3 TAUNET_154:1 TAUNET_154:2 0.1073
4 TAUNET_154:2 TAUNET_154:3 0.3579
5 TAUNET_154:3 TAUGATE_154:A 0.1300
*END

*D_NET net_96 8.0235
*CONN
*I TAUGATE_141:Z O
*I inst_125:A1 I
*I inst_129:A1 I
*I inst_97:A2 I
*I inst_137:A1 I
*I inst_61:A2 I
*I inst_263:A2 I
*I inst_44:A2 I
*I inst_115:A1 I
*CAP
1 TAUGATE_141:Z 0.2362
2 net_96:1 0.1996
3 net_96:2 0.3123
4 inst_44:A2 0.1251
5 net_96:3 0.3466
6 net_96:4 0.4948
7 net_96:5 0.4038
8 net_96:6 0.1954
9 inst_129:A1 0.0063
10 net_96:7 0.2231
11 inst_97:A2 0.2934
12 net_96:8 0.0765
13 net_96:9 0.1980
14 net_96:10 0.3226
15 inst_137:A1 0.1282
16 net_96:11 0.4631
17 net_96:12 0.0407
18 net_96:13 0.4130
19 net_96:14 0.3462
20 net_96:15 0.0714
21 inst_61:A2 0.2110
22 net_96:16 0.0645
23 net_96:17 0.3416
24 net_96:18 0.4099
25 net_96:19 0.1540
26 net_96:20 0.0325
27 inst_263:A2 0.0924
28 net_96:21 0.0580
29 net_96:22 0.3810
30 net_96:23 0.2195
31 net_96:24 0.2042
32 net_96:25 0.2030
33 inst_125:A1 0.2656
34 net_96:26 0.2654
35 inst_115:A1 0.2245
*RES
2 TAUGATE_141:Z net_96:1 0.0048
3 net_96:1 net_96:2 0.3126
4 net_96:2 inst_44:A2 0.0195
5 net_96:2 net_96:3 0.4904
6 net_96:3 net_96:4 0.0915
7 net_96:4 net_96:5 0.4619
8 net_96:5 net_96:6 0.1065
9 net_96:6 inst_129:A1 0.1990
10 net_96:3 net_96:7 0.0661
11 net_96:7 inst_97:A2 0.0281
12 net_96:2 net_96:8 0.2766
13 net_96:8 net_96:9 0.4045
14 net_96:9 net_96:10 0.4267
15 net_96:10 inst_137:A1 0.4596
16 net_96:7 net_96:11 0.2588
17 net_96:11 net_96:12 0.0339
18 net_96:12 net_96:13 0.0519
19 net_96:13 net_96:14 0.4874
20 net_96:14 net_96:15 0.0374
21 net_96:15 inst_61:A2 0.2489
22 net_96:1 net_96:16 0.1850
23 net_96:16 net_96:17 0.1516
24 net_96:17 net_96:18 0.2746
25 net_96:18 net_96:19 0.4228
26 net_96:19 net_96:20 0.1417
27 net_96:20 inst_263:A2 0.3754
28 net_96:17 net_96:21 0.4413
29 net_96:21 net_96:22 0.1336
30 net_96:22 net_96:23 0.4042
31 net_96:23 net_96:24 0.0451
32 net_96:24 net_96:25 0.2391
33 net_96:25 inst_125:A1 0.0321
34 net_96:21 net_96:26 0.4797
35 net_96:26 inst_115:A1 0.0551
*END

*D_NET net_167 2.0667
*CONN
*I TAUGATE_231:Z O
*I inst_64:A2 I
*I inst_7:A2 I
*CAP
1 TAUGATE_231:Z 0.0973
2 net_167:1 0.1903
3 net_167:2 0.2143
4 net_167:3 0.0701
5 net_167:4 0.2421
6 net_167:5 0.4634
7 inst_64:A2 0.2497
8 net_167:6 0.1341
9 inst_7:A2 0.4054
*RES
2 TAUGATE_231:Z net_167:1 0.2766
3 net_167:1 net_167:2 0.3086
4 net_167:2 net_167:3 0.2353
5 net_167:3 net_167:4 0.4838
6 net_167:4 net_167:5 0.0722
7 net_167:5 inst_64:A2 0.3539
8 net_167:4 net_167:6 0.3681
9 net_167:6 inst_7:A2 0.4419
*END

*D_NET net_136 0.7525
*CONN
*I TAUGATE_324:Z O
*I inst_82:A2 I
*CAP
1 TAUGATE_324:Z 0.1347
2 net_136:1 0.3933
3 inst_82:A2 0.2244
*RES
2 TAUGATE_324:Z net_136:1 0.4154
3 net_136:1 inst_82:A2 0.1374
*END

*D_NET net_207 4.1322
*CONN
*I TAUGATE_116:Z O
*I inst_81:A2 I
*I inst_135:A1 I
*I inst_0:A1 I
*I inst_63:A1 I
*CAP
1 TAUGATE_116:Z 0.2153
2 net_207:1 0.4918
3 net_207:2 0.3583
4 net_207:3 0.0251
5 net_207:4 0.0071
6 inst_135:A1 0.2242
7 net_207:5 0.3703
8 net_207:6 0.0365
9 net_207:7 0.4409
10 net_207:8 0.4335
11 net_207:9 0.3158
12 inst_81:A2 0.2513
13 net_207:10 0.3442
14 net_207:11 0.1815
15 inst_0:A1 0.2112
16 net_207:12 0.2235
17 inst_63:A1 0.0018
*RES
2 TAUGATE_116:Z net_207:1 0.4834
3 net_207:1 net_207:2 0.4589