*SPEF "IEEE 1481-1998"
*DESIGN "changes"
*DATE "Tue Dec 02 20:45:59 2014"
*VENDOR "TAU 2015 Contest"
*PROGRAM "Benchmark Parasitic Generator"
*VERSION "0.0"
*DESIGN_FLOW "NETLIST_TYPE_VERILOG"
*DIVIDER /
*DELIMITER :
*BUS_DELIMITER [ ]
*T_UNIT 1 PS
*C_UNIT 1 FF
*R_UNIT 1 KOHM
*L_UNIT 1 UH

*D_NET TAUNET_13 1.7439
*CONN
*I inst_123:ZN O
*I TAUGATE_13:A I
*CAP
1 inst_123:ZN 0.2611
2 TAUNET_13:1 0.4098
3 TAUNET_13:2 0.5009
4 TAUNET_13:3 0.2843
5 TAUGATE_13:A 0.2878
*RES
2 inst_123:ZN TAUNET_13:1 0.1659
3 TAUNET_13:1 TAUNET_13:2 0.2742
4 TAUNET_13:2 TAUNET_13:3 0.3494
5 TAUNET_13:3 TAUGATE_13:A 0.1485
*END

*D_NET TAUNET_12 1.3760
*CONN
*I inst_219:ZN O
*I TAUGATE_12:A I
*CAP
1 inst_219:ZN 0.2110
2 TAUNET_12:1 0.3070
3 TAUNET_12:2 0.3583
4 TAUNET_12:3 0.1395
5 TAUNET_12:4 0.0646
6 TAUNET_12:5 0.0794
7 TAUGATE_12:A 0.2161
*RES
2 inst_219:ZN TAUNET_12:1 0.1614
3 TAUNET_12:1 TAUNET_12:2 0.3312
4 TAUNET_12:2 TAUNET_12:3 0.3755
5 TAUNET_12:3 TAUNET_12:4 0.4644
6 TAUNET_12:4 TAUNET_12:5 0.4559
7 TAUNET_12:5 TAUGATE_12:A 0.4050
*END

*D_NET net_179 0.4849
*CONN
*I TAUGATE_48:Z O
*I inst_70:A3 I
*CAP
1 TAUGATE_48:Z 0.1670
2 net_179:1 0.2440
3 net_179:2 0.0332
4 inst_70:A3 0.0406
*RES
2 TAUGATE_48:Z net_179:1 0.2732
3 net_179:1 net_179:2 0.0073
4 net_179:2 inst_70:A3 0.1308
*END

*D_NET net_222 1.8161
*CONN
*I TAUGATE_30:Z O
*I inst_255:D I
*CAP
1 TAUGATE_30:Z 0.2909
2 net_222:1 0.0740
3 net_222:2 0.4871
4 net_222:3 0.4951
5 net_222:4 0.4125
6 inst_255:D 0.0565
*RES
2 TAUGATE_30:Z net_222:1 0.1285
3 net_222:1 net_222:2 0.0292
4 net_222:2 net_222:3 0.2926
5 net_222:3 net_222:4 0.4507
6 net_222:4 inst_255:D 0.3356
*END

*D_NET net_30 1.9602
*CONN
*I TAUGATE_54:Z O
*I inst_10:A1 I
*CAP
1 TAUGATE_54:Z 0.3845
2 net_30:1 0.3056
3 net_30:2 0.3464
4 net_30:3 0.0305
5 net_30:4 0.2383
6 net_30:5 0.4020
7 inst_10:A1 0.2529
*RES
2 TAUGATE_54:Z net_30:1 0.2665
3 net_30:1 net_30:2 0.4354
4 net_30:2 net_30:3 0.1977
5 net_30:3 net_30:4 0.0788
6 net_30:4 net_30:5 0.3276
7 net_30:5 inst_10:A1 0.3833
*END

*D_NET net_215 0.8670
*CONN
*I TAUGATE_16:Z O
*I inst_89:A1 I
*CAP
1 TAUGATE_16:Z 0.0716
2 net_215:1 0.1922
3 net_215:2 0.2805
4 net_215:3 0.1322
5 inst_89:A1 0.1905
*RES
2 TAUGATE_16:Z net_215:1 0.4017
3 net_215:1 net_215:2 0.4680
4 net_215:2 net_215:3 0.2976
5 net_215:3 inst_89:A1 0.2331
*END

*D_NET net_132 1.3358
*CONN
*I TAUGATE_10:Z O
*I inst_17:A1 I
*CAP
1 TAUGATE_10:Z 0.3943
2 net_132:1 0.1955
3 net_132:2 0.1868
4 net_132:3 0.4889
5 inst_17:A1 0.0703
*RES
2 TAUGATE_10:Z net_132:1 0.3298
3 net_132:1 net_132:2 0.4131
4 net_132:2 net_132:3 0.3310
5 net_132:3 inst_17:A1 0.2621
*END

*D_NET net_62 2.7698
*CONN
*I TAUGATE_11:Z O
*I inst_237:A I
*I inst_42:A1 I
*CAP
1 TAUGATE_11:Z 0.1808
2 net_62:1 0.3990
3 inst_42:A1 0.4035
4 net_62:2 0.3591
5 net_62:3 0.2780
6 net_62:4 0.2022
7 net_62:5 0.1593
8 net_62:6 0.4382
9 inst_237:A 0.3498
*RES
2 TAUGATE_11:Z net_62:1 0.0219
3 net_62:1 inst_42:A1 0.0830
4 net_62:1 net_62:2 0.4055
5 net_62:2 net_62:3 0.4519
6 net_62:3 net_62:4 0.4658
7 net_62:4 net_62:5 0.3690
8 net_62:5 net_62:6 0.4019
9 net_62:6 inst_237:A 0.0632
*END

*D_NET TAUNET_35 2.0111
*CONN
*I inst_85:ZN O
*I TAUGATE_35:A I
*CAP
1 inst_85:ZN 0.4700
2 TAUNET_35:1 0.3545
3 TAUNET_35:2 0.1033
4 TAUNET_35:3 0.4316
5 TAUNET_35:4 0.1782
6 TAUGATE_35:A 0.4734
*RES
2 inst_85:ZN TAUNET_35:1 0.0376
3 TAUNET_35:1 TAUNET_35:2 0.0972
4 TAUNET_35:2 TAUNET_35:3 0.3594
5 TAUNET_35:3 TAUNET_35:4 0.0525
6 TAUNET_35:4 TAUGATE_35:A 0.3248
*END

*D_NET net_46 1.7532
*CONN
*I TAUGATE_29:Z O
*I inst_95:A1 I
*CAP
1 TAUGATE_29:Z 0.1267
2 net_46:1 0.2434
3 net_46:2 0.3726
4 net_46:3 0.2980
5 net_46:4 0.2454
6 inst_95:A1 0.4670
*RES
2 TAUGATE_29:Z net_46:1 0.1921
3 net_46:1 net_46:2 0.1376
4 net_46:2 net_46:3 0.4443
5 net_46:3 net_46:4 0.1288
6 net_46:4 inst_95:A1 0.3022
*END

*D_NET net_258 1.8873
*CONN
*I TAUGATE_49:Z O
*I inst_43:A2 I
*CAP
1 TAUGATE_49:Z 0.0668
2 net_258:1 0.4131
3 net_258:2 0.4004
4 net_258:3 0.4814
5 net_258:4 0.1341
6 inst_43:A2 0.3915
*RES
2 TAUGATE_49:Z net_258:1 0.0282
3 net_258:1 net_258:2 0.3089
4 net_258:2 net_258:3 0.0253
5 net_258:3 net_258:4 0.3105
6 net_258:4 inst_43:A2 0.1881
*END

*D_NET net_118 2.3340
*CONN
*I TAUGATE_22:Z O
*I inst_51:A2 I
*I inst_249:A I
*CAP
1 TAUGATE_22:Z 0.1592
2 net_118:1 0.2761
3 net_118:2 0.3643
4 net_118:3 0.2288
5 net_118:4 0.0666
6 inst_51:A2 0.3854
7 net_118:5 0.4921
8 net_118:6 0.1648
9 net_118:7 0.1855
10 inst_249:A 0.0112
*RES
2 TAUGATE_22:Z net_118:1 0.3580
3 net_118:1 net_118:2 0.3774
4 net_118:2 net_118:3 0.2731
5 net_118:3 net_118:4 0.1525
6 net_118:4 inst_51:A2 0.0518
7 net_118:3 net_118:5 0.3530
8 net_118:5 net_118:6 0.1128
9 net_118:6 net_118:7 0.2239
10 net_118:7 inst_249:A 0.0917
*END

*D_NET pcnt17 1.4419
*CONN
*I TAUGATE_47:Z O
*I inst_160:A1 I
*I inst_226:A I
*CAP
1 TAUGATE_47:Z 0.1494
2 pcnt17:1 0.1620
3 pcnt17:2 0.0029
4 pcnt17:3 0.2883
5 pcnt17:4 0.1903
6 inst_226:A 0.4381
7 pcnt17:5 0.0510
8 inst_160:A1 0.1600
*RES
2 TAUGATE_47:Z pcnt17:1 0.3484
3 pcnt17:1 pcnt17:2 0.0801
4 pcnt17:2 pcnt17:3 0.1392
5 pcnt17:3 pcnt17:4 0.1891
6 pcnt17:4 inst_226:A 0.0464
7 pcnt17:4 pcnt17:5 0.1748
8 pcnt17:5 inst_160:A1 0.4787
*END

*D_NET net_146 1.6741
*CONN
*I TAUGATE_37:Z O
*I inst_147:A2 I
*CAP
1 TAUGATE_37:Z 0.4606
2 net_146:1 0.4657
3 net_146:2 0.3595
4 net_146:3 0.2471
5 net_146:4 0.0832
6 inst_147:A2 0.0580
*RES
2 TAUGATE_37:Z net_146:1 0.3736
3 net_146:1 net_146:2 0.0395
4 net_146:2 net_146:3 0.3644
5 net_146:3 net_146:4 0.0829
6 net_146:4 inst_147:A2 0.1977
*END

*D_NET TAUNET_46 2.1119
*CONN
*I inst_136:ZN O
*I TAUGATE_46:A I
*CAP
1 inst_136:ZN 0.3877
2 TAUNET_46:1 0.4950
3 TAUNET_46:2 0.0413
4 TAUNET_46:3 0.4651
5 TAUNET_46:4 0.4065
6 TAUGATE_46:A 0.3164
*RES
2 inst_136:ZN TAUNET_46:1 0.3513
3 TAUNET_46:1 TAUNET_46:2 0.1165
4 TAUNET_46:2 TAUNET_46:3 0.0986
5 TAUNET_46:3 TAUNET_46:4 0.2243
6 TAUNET_46:4 TAUGATE_46:A 0.1286
*END

*D_NET net_210 1.4306
*CONN
*I TAUGATE_44:Z O
*I inst_88:A2 I
*CAP
1 TAUGATE_44:Z 0.2482
2 net_210:1 0.1533
3 net_210:2 0.4091
4 net_210:3 0.2613
5 inst_88:A2 0.3587
*RES
2 TAUGATE_44:Z net_210:1 0.1869
3 net_210:1 net_210:2 0.4974
4 net_210:2 net_210:3 0.3047
5 net_210:3 inst_88:A2 0.1200
*END

*D_NET TAUNET_24 0.5270
*CONN
*I inst_45:ZN O
*I TAUGATE_24:A I
*CAP
1 inst_45:ZN 0.1210
2 TAUNET_24:1 0.1014
3 TAUNET_24:2 0.0283
4 TAUGATE_24:A 0.2763
*RES
2 inst_45:ZN TAUNET_24:1 0.2945
3 TAUNET_24:1 TAUNET_24:2 0.3177
4 TAUNET_24:2 TAUGATE_24:A 0.2101
*END

*D_NET TAUNET_16 1.4286
*CONN
*I inst_11:ZN O
*I TAUGATE_16:A I
*CAP
1 inst_11:ZN 0.2046
2 TAUNET_16:1 0.1317
3 TAUNET_16:2 0.3617
4 TAUNET_16:3 0.0856
5 TAUNET_16:4 0.3629
6 TAUGATE_16:A 0.2821
*RES
2 inst_11:ZN TAUNET_16:1 0.3900
3 TAUNET_16:1 TAUNET_16:2 0.0557
4 TAUNET_16:2 TAUNET_16:3 0.1253
5 TAUNET_16:3 TAUNET_16:4 0.2716
6 TAUNET_16:4 TAUGATE_16:A 0.3735
*END

*D_NET TAUNET_31 1.5454
*CONN
*I inst_40:ZN O
*I TAUGATE_31:A I
*CAP
1 inst_40:ZN 0.3323
2 TAUNET_31:1 0.0362
3 TAUNET_31:2 0.4966
4 TAUNET_31:3 0.4101
5 TAUGATE_31:A 0.2702
*RES
2 inst_40:ZN TAUNET_31:1 0.2135
3 TAUNET_31:1 TAUNET_31:2 0.0419
4 TAUNET_31:2 TAUNET_31:3 0.2773
5 TAUNET_31:3 TAUGATE_31:A 0.0903
*END

*D_NET TAUNET_25 2.3457
*CONN
*I inst_122:ZN O
*I TAUGATE_25:A I
*CAP
1 inst_122:ZN 0.4602
2 TAUNET_25:1 0.2009
3 TAUNET_25:2 0.3114
4 TAUNET_25:3 0.3090
5 TAUNET_25:4 0.3972
6 TAUNET_25:5 0.4228
7 TAUGATE_25:A 0.2443
*RES
2 inst_122:ZN TAUNET_25:1 0.2458
3 TAUNET_25:1 TAUNET_25:2 0.3734
4 TAUNET_25:2 TAUNET_25:3 0.1567
5 TAUNET_25:3 TAUNET_25:4 0.1247
6 TAUNET_25:4 TAUNET_25:5 0.2439
7 TAUNET_25:5 TAUGATE_25:A 0.2588
*END

*D_NET TAUNET_27 0.9945
*CONN
*I inst_61:ZN O
*I TAUGATE_27:A I
*CAP
1 inst_61:ZN 0.3528
2 TAUNET_27:1 0.4436
3 TAUGATE_27:A 0.1981
*RES
2 inst_61:ZN TAUNET_27:1 0.3275
3 TAUNET_27:1 TAUGATE_27:A 0.0169
*END

*D_NET TAUNET_28 1.2825
*CONN
*I TAUGATE_4:Z O
*I TAUGATE_28:A I
*CAP
1 TAUGATE_4:Z 0.4684
2 TAUNET_28:1 0.0579
3 TAUNET_28:2 0.0423
4 TAUNET_28:3 0.2861
5 TAUGATE_28:A 0.4278
*RES
2 TAUGATE_4:Z TAUNET_28:1 0.3875
3 TAUNET_28:1 TAUNET_28:2 0.4796
4 TAUNET_28:2 TAUNET_28:3 0.3740
5 TAUNET_28:3 TAUGATE_28:A 0.1554
*END

*D_NET TAUNET_57 2.4087
*CONN
*I inst_42:ZN O
*I TAUGATE_57:A I
*CAP
1 inst_42:ZN 0.4380
2 TAUNET_57:1 0.4990
3 TAUNET_57:2 0.2134
4 TAUNET_57:3 0.1115
5 TAUNET_57:4 0.4947
6 TAUNET_57:5 0.3666
7 TAUGATE_57:A 0.2854
*RES
2 inst_42:ZN TAUNET_57:1 0.4464
3 TAUNET_57:1 TAUNET_57:2 0.2438
4 TAUNET_57:2 TAUNET_57:3 0.2969
5 TAUNET_57:3 TAUNET_57:4 0.3091
6 TAUNET_57:4 TAUNET_57:5 0.5006
7 TAUNET_57:5 TAUGATE_57:A 0.2264
*END

*D_NET net_259 1.1017
*CONN
*I TAUGATE_58:Z O
*I inst_165:A I
*CAP
1 TAUGATE_58:Z 0.2044
2 net_259:1 0.3886
3 net_259:2 0.2618
4 inst_165:A 0.2468
*RES
2 TAUGATE_58:Z net_259:1 0.4002
3 net_259:1 net_259:2 0.3652
4 net_259:2 inst_165:A 0.1857
*END

*D_NET net_128 1.1556
*CONN
*I TAUGATE_55:Z O
*I inst_151:A2 I
*CAP
1 TAUGATE_55:Z 0.0882
2 net_128:1 0.2715
3 net_128:2 0.0199
4 net_128:3 0.4145
5 net_128:4 0.1459
6 net_128:5 0.1130
7 inst_151:A2 0.1026
*RES
2 TAUGATE_55:Z net_128:1 0.1939
3 net_128:1 net_128:2 0.1095
4 net_128:2 net_128:3 0.0212
5 net_128:3 net_128:4 0.1417
6 net_128:4 net_128:5 0.2190
7 net_128:5 inst_151:A2 0.4826
*END

*D_NET TAUNET_37 1.4876
*CONN
*I inst_134:ZN O
*I TAUGATE_37:A I
*CAP
1 inst_134:ZN 0.4033
2 TAUNET_37:1 0.2540
3 TAUNET_37:2 0.0526
4 TAUNET_37:3 0.2388
5 TAUNET_37:4 0.1787
6 TAUGATE_37:A 0.3603
*RES
2 inst_134:ZN TAUNET_37:1 0.0603
3 TAUNET_37:1 TAUNET_37:2 0.0863
4 TAUNET_37:2 TAUNET_37:3 0.3102
5 TAUNET_37:3 TAUNET_37:4 0.1239
6 TAUNET_37:4 TAUGATE_37:A 0.2473
*END

*D_NET net_220 1.8437
*CONN
*I TAUGATE_35:Z O
*I inst_60:A2 I
*CAP
1 TAUGATE_35:Z 0.4935
2 net_220:1 0.3995
3 net_220:2 0.4441
4 net_220:3 0.4218
5 inst_60:A2 0.0848
*RES
2 TAUGATE_35:Z net_220:1 0.0266
3 net_220:1 net_220:2 0.0274
4 net_220:2 net_220:3 0.4218
5 net_220:3 inst_60:A2 0.2061
*END

*D_NET TAUNET_32 1.6754
*CONN
*I inst_153:ZN O
*I TAUGATE_32:A I
*CAP
1 inst_153:ZN 0.4583
2 TAUNET_32:1 0.0145
3 TAUNET_32:2 0.0725
4 TAUNET_32:3 0.4492
5 TAUNET_32:4 0.3124
6 TAUGATE_32:A 0.3685
*RES
2 inst_153:ZN TAUNET_32:1 0.4317
3 TAUNET_32:1 TAUNET_32:2 0.1801
4 TAUNET_32:2 TAUNET_32:3 0.2826
5 TAUNET_32:3 TAUNET_32:4 0.3420
6 TAUNET_32:4 TAUGATE_32:A 0.0965
*END

*D_NET TAUNET_38 1.1961
*CONN
*I inst_118:ZN O
*I TAUGATE_38:A I
*CAP
1 inst_118:ZN 0.1304
2 TAUNET_38:1 0.4634
3 TAUNET_38:2 0.2869
4 TAUNET_38:3 0.1646
5 TAUNET_38:4 0.1182
6 TAUGATE_38:A 0.0327
*RES
2 inst_118:ZN TAUNET_38:1 0.0608
3 TAUNET_38:1 TAUNET_38:2 0.3721
4 TAUNET_38:2 TAUNET_38:3 0.4648
5 TAUNET_38:3 TAUNET_38:4 0.2376
6 TAUNET_38:4 TAUGATE_38:A 0.1146
*END

*D_NET net_113 1.0898
*CONN
*I TAUGATE_38:Z O
*I inst_247:A I
*I inst_132:A2 I
*CAP
1 TAUGATE_38:Z 0.1439
2 net_113:1 0.2502
3 inst_132:A2 0.2506
4 net_113:2 0.2747
5 inst_247:A 0.1704
*RES
2 TAUGATE_38:Z net_113:1 0.4486
3 net_113:1 inst_132:A2 0.0641
4 net_113:1 net_113:2 0.2303
5 net_113:2 inst_247:A 0.0121
*END

*D_NET net_76 1.6610
*CONN
*I TAUGATE_26:Z O
*I inst_209:A I
*I inst_44:A1 I
*CAP
1 TAUGATE_26:Z 0.0267
2 net_76:1 0.1079
3 net_76:2 0.3621
4 inst_209:A 0.1254
5 net_76:3 0.3990
6 net_76:4 0.0185
7 net_76:5 0.3777
8 inst_44:A1 0.2437
*RES
2 TAUGATE_26:Z net_76:1 0.3490
3 net_76:1 net_76:2 0.4751
4 net_76:2 inst_209:A 0.3195
5 net_76:1 net_76:3 0.3641
6 net_76:3 net_76:4 0.1411
7 net_76:4 net_76:5 0.2452
8 net_76:5 inst_44:A1 0.2723
*END

*D_NET TAUNET_40 0.3445
*CONN
*I inst_187:ZN O
*I TAUGATE_40:A I
*CAP
1 inst_187:ZN 0.2449
2 TAUNET_40:1 0.0917
3 TAUGATE_40:A 0.0078
*RES
2 inst_187:ZN TAUNET_40:1 0.0227
3 TAUNET_40:1 TAUGATE_40:A 0.0264
*END

*D_NET TAUNET_20 0.9773
*CONN
*P cnt272 I
*I TAUGATE_20:A I
*CAP
1 cnt272 0.1906
2 TAUNET_20:1 0.0937
3 TAUNET_20:2 0.2944
4 TAUGATE_20:A 0.3987
*RES
2 cnt272 TAUNET_20:1 0.0209
3 TAUNET_20:1 TAUNET_20:2 0.1182
4 TAUNET_20:2 TAUGATE_20:A 0.1067
*END

*D_NET TAUNET_14 2.0282
*CONN
*I inst_76:ZN O
*I TAUGATE_14:A I
*CAP
1 inst_76:ZN 0.3672
2 TAUNET_14:1 0.1157
3 TAUNET_14:2 0.1901
4 TAUNET_14:3 0.2138
5 TAUNET_14:4 0.5008
6 TAUNET_14:5 0.2979
7 TAUGATE_14:A 0.3428
*RES
2 inst_76:ZN TAUNET_14:1 0.2325
3 TAUNET_14:1 TAUNET_14:2 0.2733
4 TAUNET_14:2 TAUNET_14:3 0.1266
5 TAUNET_14:3 TAUNET_14:4 0.3814
6 TAUNET_14:4 TAUNET_14:5 0.1363
7 TAUNET_14:5 TAUGATE_14:A 0.3277
*END

*D_NET net_85 1.7680
*CONN
*I TAUGATE_28:Z O
*I inst_261:A4 I
*CAP
1 TAUGATE_28:Z 0.4503
2 net_85:1 0.1603
3 net_85:2 0.4423
4 net_85:3 0.1159
5 net_85:4 0.4527
6 inst_261:A4 0.1465
*RES
2 TAUGATE_28:Z net_85:1 0.1463
3 net_85:1 net_85:2 0.4621
4 net_85:2 net_85:3 0.4065
5 net_85:3 net_85:4 0.0227
6 net_85:4 inst_261:A4 0.2236
*END

*D_NET net_123 2.9080
*CONN
*I TAUGATE_31:Z O
*I inst_129:A2 I
*I inst_77:A3 I
*CAP
1 TAUGATE_31:Z 0.0715
2 net_123:1 0.1861
3 net_123:2 0.4367
4 inst_77:A3 0.3452
5 net_123:3 0.4978
6 net_123:4 0.2563
7 net_123:5 0.2595
8 net_123:6 0.2603
9 net_123:7 0.2874
10 inst_129:A2 0.3072
*RES
2 TAUGATE_31:Z net_123:1 0.0313
3 net_123:1 net_123:2 0.1217
4 net_123:2 inst_77:A3 0.0111
5 net_123:1 net_123:3 0.2768
6 net_123:3 net_123:4 0.1679
7 net_123:4 net_123:5 0.2053
8 net_123:5 net_123:6 0.2140
9 net_123:6 net_123:7 0.3306
10 net_123:7 inst_129:A2 0.1569
*END

*D_NET net_131 4.1177
*CONN
*I TAUGATE_51:Z O
*I inst_14:A1 I
*I inst_246:A I
*I inst_66:A4 I
*CAP
1 TAUGATE_51:Z 0.2138
2 net_131:1 0.3806
3 net_131:2 0.4946
4 net_131:3 0.4608
5 net_131:4 0.4692
6 net_131:5 0.4766
7 inst_246:A 0.0589
8 net_131:6 0.4748
9 net_131:7 0.0806
10 inst_14:A1 0.0407
11 net_131:8 0.1831
12 net_131:9 0.4110
13 net_131:10 0.0191
14 inst_66:A4 0.3538
*RES
2 TAUGATE_51:Z net_131:1 0.0962
3 net_131:1 net_131:2 0.2415
4 net_131:2 net_131:3 0.1750
5 net_131:3 net_131:4 0.4103
6 net_131:4 net_131:5 0.0845
7 net_131:5 inst_246:A 0.1888
8 net_131:1 net_131:6 0.2069
9 net_131:6 net_131:7 0.0491
10 net_131:7 inst_14:A1 0.4137
11 net_131:5 net_131:8 0.4300
12 net_131:8 net_131:9 0.3629
13 net_131:9 net_131:10 0.0787
14 net_131:10 inst_66:A4 0.2007
*END

*D_NET TAUNET_49 2.1629
*CONN
*I inst_225:ZN O
*I TAUGATE_49:A I
*CAP
1 inst_225:ZN 0.4025
2 TAUNET_49:1 0.3538
3 TAUNET_49:2 0.4649
4 TAUNET_49:3 0.0482
5 TAUNET_49:4 0.1062
6 TAUNET_49:5 0.2963
7 TAUGATE_49:A 0.4911
*RES
2 inst_225:ZN TAUNET_49:1 0.2002
3 TAUNET_49:1 TAUNET_49:2 0.2573
4 TAUNET_49:2 TAUNET_49:3 0.3761
5 TAUNET_49:3 TAUNET_49:4 0.0616
6 TAUNET_49:4 TAUNET_49:5 0.4298
7 TAUNET_49:5 TAUGATE_49:A 0.2857
*END

*D_NET net_160 0.6543
*CONN
*I TAUGATE_59:Z O
*I inst_68:A1 I
*CAP
1 TAUGATE_59:Z 0.0470
2 net_160:1 0.1738
3 inst_68:A1 0.4336
*RES
2 TAUGATE_59:Z net_160:1 0.4556
3 net_160:1 inst_68:A1 0.1284
*END

*D_NET net_170 2.4221
*CONN
*I TAUGATE_25:Z O
*I inst_8:A2 I
*I inst_9:A2 I
*CAP
1 TAUGATE_25:Z 0.1731
2 net_170:1 0.3095
3 net_170:2 0.4895
4 net_170:3 0.4033
5 inst_8:A2 0.2734
6 net_170:4 0.4915
7 net_170:5 0.0683
8 inst_9:A2 0.2135
*RES
2 TAUGATE_25:Z net_170:1 0.3461
3 net_170:1 net_170:2 0.3729
4 net_170:2 net_170:3 0.0418
5 net_170:3 inst_8:A2 0.3671
6 net_170:3 net_170:4 0.4484
7 net_170:4 net_170:5 0.1379
8 net_170:5 inst_9:A2 0.1139
*END

*D_NET net_142 3.6503
*CONN
*I TAUGATE_52:Z O
*I inst_248:A I
*I inst_27:A1 I
*I inst_63:A2 I
*CAP
1 TAUGATE_52:Z 0.0861
2 net_142:1 0.4806
3 net_142:2 0.3473
4 inst_248:A 0.1114
5 net_142:3 0.1592
6 net_142:4 0.4236
7 net_142:5 0.3328
8 net_142:6 0.1906
9 inst_27:A1 0.5003
10 net_142:7 0.3610
11 net_142:8 0.0042
12 net_142:9 0.2690
13 inst_63:A2 0.3841
*RES
2 TAUGATE_52:Z net_142:1 0.0198
3 net_142:1 net_142:2 0.2366
4 net_142:2 inst_248:A 0.1100
5 net_142:2 net_142:3 0.4347
6 net_142:3 net_142:4 0.3044
7 net_142:4 net_142:5 0.1394
8 net_142:5 net_142:6 0.0096
9 net_142:6 inst_27:A1 0.4963
10 net_142:3 net_142:7 0.3400
11 net_142:7 net_142:8 0.2352
12 net_142:8 net_142:9 0.3112
13 net_142:9 inst_63:A2 0.1345
*END

*D_NET TAUNET_50 1.3775
*CONN
*I inst_206:ZN O
*I TAUGATE_50:A I
*CAP
1 inst_206:ZN 0.0741
2 TAUNET_50:1 0.4891
3 TAUNET_50:2 0.0621
4 TAUNET_50:3 0.2122
5 TAUNET_50:4 0.2034
6 TAUNET_50:5 0.1253
7 TAUGATE_50:A 0.2112
*RES
2 inst_206:ZN TAUNET_50:1 0.2343
3 TAUNET_50:1 TAUNET_50:2 0.1106
4 TAUNET_50:2 TAUNET_50:3 0.0283
5 TAUNET_50:3 TAUNET_50:4 0.2644
6 TAUNET_50:4 TAUNET_50:5 0.3395
7 TAUNET_50:5 TAUGATE_50:A 0.4160
*END

*D_NET net_248 0.5024
*CONN
*I TAUGATE_12:Z O
*I inst_52:A2 I
*CAP
1 TAUGATE_12:Z 0.1702
2 net_248:1 0.0383
3 inst_52:A2 0.2939
*RES
2 TAUGATE_12:Z net_248:1 0.2177
3 net_248:1 inst_52:A2 0.0520
*END

*D_NET TAUNET_23 1.5382
*CONN
*P cnt511 I
*I TAUGATE_23:A I
*CAP
1 cnt511 0.3277
2 TAUNET_23:1 0.1825
3 TAUNET_23:2 0.4154
4 TAUNET_23:3 0.4205
5 TAUGATE_23:A 0.1921
*RES
2 cnt511 TAUNET_23:1 0.3303
3 TAUNET_23:1 TAUNET_23:2 0.0500
4 TAUNET_23:2 TAUNET_23:3 0.3450
5 TAUNET_23:3 TAUGATE_23:A 0.2552
*END

*D_NET TAUNET_39 0.9333
*CONN
*I inst_222:ZN O
*I TAUGATE_39:A I
*CAP
1 inst_222:ZN 0.3943
2 TAUNET_39:1 0.3586
3 TAUGATE_39:A 0.1804
*RES
2 inst_222:ZN TAUNET_39:1 0.2132
3 TAUNET_39:1 TAUGATE_39:A 0.3448
*END

*D_NET TAUNET_51 0.6797
*CONN
*I inst_212:ZN O
*I TAUGATE_51:A I
*CAP
1 inst_212:ZN 0.0169
2 TAUNET_51:1 0.3418
3 TAUNET_51:2 0.0277
4 TAUNET_51:3 0.2232
5 TAUGATE_51:A 0.0700
*RES
2 inst_212:ZN TAUNET_51:1 0.3825
3 TAUNET_51:1 TAUNET_51:2 0.4916
4 TAUNET_51:2 TAUNET_51:3 0.0258
5 TAUNET_51:3 TAUGATE_51:A 0.0722
*END

*D_NET net_27 0.1761
*CONN
*I TAUGATE_40:Z O
*I inst_62:A2 I
*CAP
1 TAUGATE_40:Z 0.0274
2 net_27:1 0.0758
3 inst_62:A2 0.0730
*RES
2 TAUGATE_40:Z net_27:1 0.2996
3 net_27:1 inst_62:A2 0.1500
*END

*D_NET net_164 1.1459
*CONN
*I TAUGATE_18:Z O
*I inst_18:A1 I
*CAP
1 TAUGATE_18:Z 0.0605
2 net_164:1 0.4347
3 net_164:2 0.2976
4 inst_18:A1 0.3531
*RES
2 TAUGATE_18:Z net_164:1 0.0316
3 net_164:1 net_164:2 0.1823
4 net_164:2 inst_18:A1 0.0755
*END

*D_NET TAUNET_19 1.1637
*CONN
*I inst_130:ZN O
*I TAUGATE_19:A I
*CAP
1 inst_130:ZN 0.3515
2 TAUNET_19:1 0.4269
3 TAUNET_19:2 0.0493
4 TAUNET_19:3 0.0341
5 TAUGATE_19:A 0.3020
*RES
2 inst_130:ZN TAUNET_19:1 0.3389
3 TAUNET_19:1 TAUNET_19:2 0.4000
4 TAUNET_19:2 TAUNET_19:3 0.0188
5 TAUNET_19:3 TAUGATE_19:A 0.4709
*END

*D_NET TAUNET_34 0.8262
*CONN
*I TAUGATE_6:Z O
*I TAUGATE_34:A I
*CAP
1 TAUGATE_6:Z 0.0122
2 TAUNET_34:1 0.0936
3 TAUNET_34:2 0.3051
4 TAUNET_34:3 0.1197
5 TAUGATE_34:A 0.2956
*RES
2 TAUGATE_6:Z TAUNET_34:1 0.2210
3 TAUNET_34:1 TAUNET_34:2 0.0970
4 TAUNET_34:2 TAUNET_34:3 0.2798
5 TAUNET_34:3 TAUGATE_34:A 0.3150
*END

*D_NET TAUNET_54 1.2664
*CONN
*I inst_32:ZN O
*I TAUGATE_54:A I
*CAP
1 inst_32:ZN 0.2108
2 TAUNET_54:1 0.0161
3 TAUNET_54:2 0.2047
4 TAUNET_54:3 0.3729
5 TAUNET_54:4 0.0610
6 TAUGATE_54:A 0.4010
*RES
2 inst_32:ZN TAUNET_54:1 0.2910
3 TAUNET_54:1 TAUNET_54:2 0.3768
4 TAUNET_54:2 TAUNET_54:3 0.3083
5 TAUNET_54:3 TAUNET_54:4 0.1250
6 TAUNET_54:4 TAUGATE_54:A 0.3526
*END

*D_NET TAUNET_44 1.6292
*CONN
*I inst_57:ZN O
*I TAUGATE_44:A I
*CAP
1 inst_57:ZN 0.3144
2 TAUNET_44:1 0.0820
3 TAUNET_44:2 0.2174
4 TAUNET_44:3 0.3638
5 TAUNET_44:4 0.4097
6 TAUGATE_44:A 0.2418
*RES
2 inst_57:ZN TAUNET_44:1 0.4080
3 TAUNET_44:1 TAUNET_44:2 0.3118
4 TAUNET_44:2 TAUNET_44:3 0.4981
5 TAUNET_44:3 TAUNET_44:4 0.3134
6 TAUNET_44:4 TAUGATE_44:A 0.4059
*END

*D_NET net_156 0.9494
*CONN
*I TAUGATE_46:Z O
*I inst_68:A3 I
*CAP
1 TAUGATE_46:Z 0.0910
2 net_156:1 0.3093
3 net_156:2 0.3342
4 inst_68:A3 0.2150
*RES
2 TAUGATE_46:Z net_156:1 0.0109
3 net_156:1 net_156:2 0.1830
4 net_156:2 inst_68:A3 0.2298
*END

*D_NET TAUNET_43 0.1587
*CONN
*I inst_237:ZN O
*I TAUGATE_43:A I
*CAP
1 inst_237:ZN 0.0044
2 TAUNET_43:1 0.0476
3 TAUNET_43:2 0.0521
4 TAUGATE_43:A 0.0546
*RES
2 inst_237:ZN TAUNET_43:1 0.0043
3 TAUNET_43:1 TAUNET_43:2 0.2737
4 TAUNET_43:2 TAUGATE_43:A 0.4724
*END

*D_NET TAUNET_56 1.0994
*CONN
*I inst_35:ZN O
*I TAUGATE_56:A I
*CAP
1 inst_35:ZN 0.2426
2 TAUNET_56:1 0.2784
3 TAUNET_56:2 0.2008
4 TAUGATE_56:A 0.3776
*RES
2 inst_35:ZN TAUNET_56:1 0.2937
3 TAUNET_56:1 TAUNET_56:2 0.0093
4 TAUNET_56:2 TAUGATE_56:A 0.2822
*END

*D_NET TAUNET_55 1.0927
*CONN
*I inst_131:ZN O
*I TAUGATE_55:A I
*CAP
1 inst_131:ZN 0.0309
2 TAUNET_55:1 0.3809
3 TAUNET_55:2 0.3567
4 TAUGATE_55:A 0.3242
*RES
2 inst_131:ZN TAUNET_55:1 0.2336
3 TAUNET_55:1 TAUNET_55:2 0.3863
4 TAUNET_55:2 TAUGATE_55:A 0.2365
*END

*D_NET net_92 2.4001
*CONN
*I TAUGATE_45:Z O
*I inst_243:A I
*I inst_16:A1 I
*CAP
1 TAUGATE_45:Z 0.3572
2 net_92:1 0.2185
3 net_92:2 0.2266
4 net_92:3 0.2538
5 inst_243:A 0.1297
6 net_92:4 0.1830
7 net_92:5 0.3035
8 net_92:6 0.4053
9 net_92:7 0.0863
10 inst_16:A1 0.2362
*RES
2 TAUGATE_45:Z net_92:1 0.4791
3 net_92:1 net_92:2 0.2417
4 net_92:2 net_92:3 0.2444
5 net_92:3 inst_243:A 0.4262
6 net_92:3 net_92:4 0.1365
7 net_92:4 net_92:5 0.0277
8 net_92:5 net_92:6 0.4263
9 net_92:6 net_92:7 0.2912
10 net_92:7 inst_16:A1 0.1111
*END

*D_NET TAUNET_11 0.6240
*CONN
*I inst_105:ZN O
*I TAUGATE_11:A I
*CAP
1 inst_105:ZN 0.0512
2 TAUNET_11:1 0.0984
3 TAUNET_11:2 0.0368
4 TAUGATE_11:A 0.4376
*RES
2 inst_105:ZN TAUNET_11:1 0.1423
3 TAUNET_11:1 TAUNET_11:2 0.1283
4 TAUNET_11:2 TAUGATE_11:A 0.1146
*END

*D_NET TAUNET_33 2.0583
*CONN
*I inst_257:QN O
*I TAUGATE_33:A I
*CAP
1 inst_257:QN 0.4610
2 TAUNET_33:1 0.2776
3 TAUNET_33:2 0.3781
4 TAUNET_33:3 0.3766
5 TAUNET_33:4 0.0185
6 TAUNET_33:5 0.3877
7 TAUGATE_33:A 0.1588
*RES
2 inst_257:QN TAUNET_33:1 0.3738
3 TAUNET_33:1 TAUNET_33:2 0.4556
4 TAUNET_33:2 TAUNET_33:3 0.1835
5 TAUNET_33:3 TAUNET_33:4 0.0020
6 TAUNET_33:4 TAUNET_33:5 0.2614
7 TAUNET_33:5 TAUGATE_33:A 0.3010
*END

*D_NET net_112 1.0435
*CONN
*I TAUGATE_36:Z O
*I inst_72:A3 I
*CAP
1 TAUGATE_36:Z 0.4372
2 net_112:1 0.1153
3 net_112:2 0.3810
4 inst_72:A3 0.1100
*RES
2 TAUGATE_36:Z net_112:1 0.1662
3 net_112:1 net_112:2 0.3178
4 net_112:2 inst_72:A3 0.2541
*END

*D_NET TAUNET_22 1.5558
*CONN
*I TAUGATE_2:Z O
*I TAUGATE_22:A I
*CAP
1 TAUGATE_2:Z 0.4625
2 TAUNET_22:1 0.0981
3 TAUNET_22:2 0.3461
4 TAUNET_22:3 0.2382
5 TAUGATE_22:A 0.4109
*RES
2 TAUGATE_2:Z TAUNET_22:1 0.0945
3 TAUNET_22:1 TAUNET_22:2 0.2326
4 TAUNET_22:2 TAUNET_22:3 0.0121
5 TAUNET_22:3 TAUGATE_22:A 0.2674
*END

*D_NET TAUNET_41 1.0180
*CONN
*I inst_15:ZN O
*I TAUGATE_41:A I
*CAP
1 inst_15:ZN 0.0414
2 TAUNET_41:1 0.1970
3 TAUNET_41:2 0.0138
4 TAUNET_41:3 0.4527
5 TAUGATE_41:A 0.3131
*RES
2 inst_15:ZN TAUNET_41:1 0.4392
3 TAUNET_41:1 TAUNET_41:2 0.4048
4 TAUNET_41:2 TAUNET_41:3 0.0368
5 TAUNET_41:3 TAUGATE_41:A 0.3283
*END

*D_NET TAUNET_30 1.5830
*CONN
*I inst_68:ZN O
*I TAUGATE_30:A I
*CAP
1 inst_68:ZN 0.4199
2 TAUNET_30:1 0.3306
3 TAUNET_30:2 0.3042
4 TAUNET_30:3 0.1317
5 TAUNET_30:4 0.1481
6 TAUGATE_30:A 0.2485
*RES
2 inst_68:ZN TAUNET_30:1 0.2201
3 TAUNET_30:1 TAUNET_30:2 0.2966
4 TAUNET_30:2 TAUNET_30:3 0.3013
5 TAUNET_30:3 TAUNET_30:4 0.0758
6 TAUNET_30:4 TAUGATE_30:A 0.0262
*END

*D_NET TAUNET_58 0.4260
*CONN
*I inst_260:QN O
*I TAUGATE_58:A I
*CAP
1 inst_260:QN 0.0656
2 TAUNET_58:1 0.0047
3 TAUNET_58:2 0.1418
4 TAUGATE_58:A 0.2138
*RES
2 inst_260:QN TAUNET_58:1 0.3805
3 TAUNET_58:1 TAUNET_58:2 0.2523
4 TAUNET_58:2 TAUGATE_58:A 0.0497
*END

*D_NET net_43 2.9544
*CONN
*I TAUGATE_34:Z O
*I inst_33:A2 I
*I inst_23:A2 I
*I inst_233:A I
*CAP
1 TAUGATE_34:Z 0.3913
2 net_43:1 0.3201
3 net_43:2 0.0320
4 net_43:3 0.2786
5 inst_233:A 0.3378
6 net_43:4 0.2701
7 net_43:5 0.3351
8 inst_23:A2 0.4105
9 net_43:6 0.3812
10 net_43:7 0.0751
11 inst_33:A2 0.1227
*RES
2 TAUGATE_34:Z net_43:1 0.4364
3 net_43:1 net_43:2 0.2454
4 net_43:2 net_43:3 0.4527
5 net_43:3 inst_233:A 0.2663
6 net_43:3 net_43:4 0.3004
7 net_43:4 net_43:5 0.3665
8 net_43:5 inst_23:A2 0.1341
9 net_43:1 net_43:6 0.0294
10 net_43:6 net_43:7 0.0059
11 net_43:7 inst_33:A2 0.3552
*END

*D_NET net_2 2.1906
*CONN
*I TAUGATE_39:Z O
*I inst_30:A1 I
*CAP
1 TAUGATE_39:Z 0.1840
2 net_2:1 0.3573
3 net_2:2 0.4559
4 net_2:3 0.3575
5 net_2:4 0.1715
6 net_2:5 0.3050
7 inst_30:A1 0.3594
*RES
2 TAUGATE_39:Z net_2:1 0.4902
3 net_2:1 net_2:2 0.4716
4 net_2:2 net_2:3 0.2112
5 net_2:3 net_2:4 0.1762
6 net_2:4 net_2:5 0.1166
7 net_2:5 inst_30:A1 0.1660
*END

*D_NET net_238 13.2522
*CONN
*I TAUGATE_33:Z O
*I inst_180:A I
*I inst_62:A1 I
*I inst_106:A1 I
*I inst_179:A I
*I inst_90:A2 I
*I inst_108:A1 I
*I inst_104:A2 I
*I inst_119:A1 I
*I inst_266:A2 I
*CAP
1 TAUGATE_33:Z 0.2908
2 net_238:1 0.3308
3 net_238:2 0.4080
4 net_238:3 0.4669
5 net_238:4 0.1932
6 inst_179:A 0.0675
7 net_238:5 0.4574
8 net_238:6 0.4683
9 net_238:7 0.1543
10 net_238:8 0.4873
11 inst_62:A1 0.1669
12 net_238:9 0.4210
13 net_238:10 0.2594
14 net_238:11 0.3565
15 inst_106:A1 0.4074
16 net_238:12 0.3870
17 net_238:13 0.3663
18 net_238:14 0.1512
19 net_238:15 0.1368
20 inst_180:A 0.4493
21 net_238:16 0.0401
22 net_238:17 0.2861
23 net_238:18 0.1883
24 net_238:19 0.3075
25 net_238:20 0.0604
26 inst_90:A2 0.3908
27 net_238:21 0.0492
28 net_238:22 0.2707
29 inst_108:A1 0.0711
30 net_238:23 0.3648
31 net_238:24 0.4404
32 net_238:25 0.3187
33 net_238:26 0.4272
34 net_238:27 0.0224
35 inst_104:A2 0.4026
36 net_238:28 0.1530
37 net_238:29 0.2582
38 net_238:30 0.4484
39 inst_119:A1 0.0762
40 net_238:31 0.2972
41 net_238:32 0.3936
42 net_238:33 0.4880
43 net_238:34 0.4169
44 net_238:35 0.3167
45 inst_266:A2 0.3376
*RES
2 TAUGATE_33:Z net_238:1 0.0053
3 net_238:1 net_238:2 0.1459
4 net_238:2 net_238:3 0.0437
5 net_238:3 net_238:4 0.4598
6 net_238:4 inst_179:A 0.3838
7 net_238:2 net_238:5 0.4800
8 net_238:5 net_238:6 0.4518
9 net_238:6 net_238:7 0.0570
10 net_238:7 net_238:8 0.4909
11 net_238:8 inst_62:A1 0.0572
12 net_238:2 net_238:9 0.4309
13 net_238:9 net_238:10 0.4474
14 net_238:10 net_238:11 0.2931
15 net_238:11 inst_106:A1 0.2848
16 net_238:5 net_238:12 0.4663
17 net_238:12 net_238:13 0.2866
18 net_238:13 net_238:14 0.1873
19 net_238:14 net_238:15 0.1599
20 net_238:15 inst_180:A 0.3589
21 net_238:15 net_238:16 0.2921
22 net_238:16 net_238:17 0.4162
23 net_238:17 net_238:18 0.1285
24 net_238:18 net_238:19 0.0491
25 net_238:19 net_238:20 0.3511
26 net_238:20 inst_90:A2 0.2111
27 net_238:12 net_238:21 0.2365
28 net_238:21 net_238:22 0.0021
29 net_238:22 inst_108:A1 0.2080
30 net_238:16 net_238:23 0.2784
31 net_238:23 net_238:24 0.1803
32 net_238:24 net_238:25 0.0882
33 net_238:25 net_238:26 0.2924
34 net_238:26 net_238:27 0.4780
35 net_238:27 inst_104:A2 0.3510
36 net_238:7 net_238:28 0.1986
37 net_238:28 net_238:29 0.3922
38 net_238:29 net_238:30 0.3950
39 net_238:30 inst_119:A1 0.2666
40 net_238:27 net_238:31 0.1073
41 net_238:31 net_238:32 0.3579
42 net_238:32 net_238:33 0.1300
43 net_238:33 net_238:34 0.3795
44 net_238:34 net_238:35 0.2362
45 net_238:35 inst_266:A2 0.1908
*END

*D_NET net_120 2.2984
*CONN
*I TAUGATE_57:Z O
*I inst_97:A1 I
*I inst_268:A2 I
*CAP
1 TAUGATE_57:Z 0.3123
2 net_120:1 0.0048
3 net_120:2 0.3126
4 inst_97:A1 0.0195
5 net_120:3 0.4038
6 net_120:4 0.1954
7 net_120:5 0.0063
8 net_120:6 0.4904
9 net_120:7 0.0915
10 inst_268:A2 0.4619
*RES
2 TAUGATE_57:Z net_120:1 0.0541
3 net_120:1 net_120:2 0.3700
4 net_120:2 inst_97:A1 0.3260
5 net_120:2 net_120:3 0.1065
6 net_120:3 net_120:4 0.1990
7 net_120:4 net_120:5 0.2576
8 net_120:5 net_120:6 0.0690
9 net_120:6 net_120:7 0.2231
10 net_120:7 inst_268:A2 0.2934
*END

*D_NET TAUNET_52 0.5565
*CONN
*I inst_95:ZN O
*I TAUGATE_52:A I
*CAP
1 inst_95:ZN 0.0281
2 TAUNET_52:1 0.2539
3 TAUNET_52:2 0.0765
4 TAUGATE_52:A 0.1980
*RES
2 inst_95:ZN TAUNET_52:1 0.3226
3 TAUNET_52:1 TAUNET_52:2 0.1282
4 TAUNET_52:2 TAUGATE_52:A 0.2766
*END

*D_NET TAUNET_59 2.4916
*CONN
*I TAUGATE_8:Z O
*I TAUGATE_59:A I
*CAP
1 TAUGATE_8:Z 0.4267
2 TAUNET_59:1 0.3295
3 TAUNET_59:2 0.4724
4 TAUNET_59:3 0.4631
5 TAUNET_59:4 0.0407
6 TAUNET_59:5 0.4130
7 TAUGATE_59:A 0.3462
*RES
2 TAUGATE_8:Z TAUNET_59:1 0.0714
3 TAUNET_59:1 TAUNET_59:2 0.2110
4 TAUNET_59:2 TAUNET_59:3 0.2588
5 TAUNET_59:3 TAUNET_59:4 0.0339
6 TAUNET_59:4 TAUNET_59:5 0.0519
7 TAUNET_59:5 TAUGATE_59:A 0.4874
*END

*D_NET TAUNET_48 1.1229
*CONN
*I inst_9:ZN O
*I TAUGATE_48:A I
*CAP
1 inst_9:ZN 0.2489
2 TAUNET_48:1 0.0346
3 TAUNET_48:2 0.4333
4 TAUNET_48:3 0.0645
5 TAUGATE_48:A 0.3416
*RES
2 inst_9:ZN TAUNET_48:1 0.4099
3 TAUNET_48:1 TAUNET_48:2 0.1540
4 TAUNET_48:2 TAUNET_48:3 0.0325
5 TAUNET_48:3 TAUGATE_48:A 0.0924
*END

*D_NET TAUNET_42 1.2932
*CONN
*P cnt591 I
*I TAUGATE_42:A I
*CAP
1 cnt591 0.1516
2 TAUNET_42:1 0.4228
3 TAUNET_42:2 0.1417
4 TAUNET_42:3 0.3754
5 TAUGATE_42:A 0.2016
*RES
2 cnt591 TAUNET_42:1 0.0068
3 TAUNET_42:1 TAUNET_42:2 0.2001
4 TAUNET_42:2 TAUNET_42:3 0.4220
5 TAUNET_42:3 TAUGATE_42:A 0.4926
*END

*D_NET TAUNET_18 1.4952
*CONN
*I inst_53:ZN O
*I TAUGATE_18:A I
*CAP
1 inst_53:ZN 0.3810
2 TAUNET_18:1 0.2042
3 TAUNET_18:2 0.2030
4 TAUNET_18:3 0.2656
5 TAUGATE_18:A 0.4413
*RES
2 inst_53:ZN TAUNET_18:1 0.1336
3 TAUNET_18:1 TAUNET_18:2 0.4042
4 TAUNET_18:2 TAUNET_18:3 0.0451
5 TAUNET_18:3 TAUGATE_18:A 0.2391
*END

*D_NET TAUNET_45 0.9045
*CONN
*I inst_114:ZN O
*I TAUGATE_45:A I
*CAP
1 inst_114:ZN 0.4146
2 TAUNET_45:1 0.2654
3 TAUGATE_45:A 0.2245
*RES
2 inst_114:ZN TAUNET_45:1 0.4797
3 TAUNET_45:1 TAUGATE_45:A 0.0551
*END

*D_NET TAUNET_21 1.5272
*CONN
*I inst_111:ZN O
*I TAUGATE_21:A I
*CAP
1 inst_111:ZN 0.0973
2 TAUNET_21:1 0.1903
3 TAUNET_21:2 0.2143
4 TAUNET_21:3 0.0701
5 TAUNET_21:4 0.2421
6 TAUNET_21:5 0.4634
7 TAUGATE_21:A 0.2497
*RES
2 inst_111:ZN TAUNET_21:1 0.2766
3 TAUNET_21:1 TAUNET_21:2 0.3086
4 TAUNET_21:2 TAUNET_21:3 0.2353
5 TAUNET_21:3 TAUNET_21:4 0.4838
6 TAUNET_21:4 TAUNET_21:5 0.0722
7 TAUNET_21:5 TAUGATE_21:A 0.3539
*END

*D_NET TAUNET_3 1.2346
*CONN
*I TAUGATE_15:Z O
*I TAUGATE_3:A I
*CAP
1 TAUGATE_15:Z 0.0192
2 TAUNET_3:1 0.4054
3 TAUNET_3:2 0.3681
4 TAUGATE_3:A 0.4419
*RES
2 TAUGATE_15:Z TAUNET_3:1 0.1561
3 TAUNET_3:1 TAUNET_3:2 0.1347
4 TAUNET_3:2 TAUGATE_3:A 0.0224
*END

*D_NET net_230 1.9103
*CONN
*I TAUGATE_27:Z O
*I inst_19:A3 I
*CAP
1 TAUGATE_27:Z 0.2244
2 net_230:1 0.1374
3 net_230:2 0.1713
4 net_230:3 0.2153
5 net_230:4 0.3119
6 net_230:5 0.4918
7 inst_19:A3 0.3583
*RES
2 TAUGATE_27:Z net_230:1 0.0251
3 net_230:1 net_230:2 0.0071
4 net_230:2 net_230:3 0.2242
5 net_230:3 net_230:4 0.4834
6 net_230:4 net_230:5 0.4589
7 net_230:5 inst_19:A3 0.0098
*END

*D_NET net_134 2.1429
*CONN
*I TAUGATE_14:Z O
*I inst_87:A2 I
*CAP
1 TAUGATE_14:Z 0.2846
2 net_134:1 0.1185
3 net_134:2 0.4585
4 net_134:3 0.3703
5 net_134:4 0.0365
6 net_134:5 0.4409
7 inst_87:A2 0.4335
*RES
2 TAUGATE_14:Z net_134:1 0.3158