*SPEF "IEEE 1481-1998"
*DESIGN "changes"
*DATE "Tue Dec 02 20:45:59 2014"
*VENDOR "TAU 2015 Contest"
*PROGRAM "Benchmark Parasitic Generator"
*VERSION "0.0"
*DESIGN_FLOW "NETLIST_TYPE_VERILOG"
*DIVIDER /
*DELIMITER :
*BUS_DELIMITER [ ]
*T_UNIT 1 PS
*C_UNIT 1 FF
*R_UNIT 1 KOHM
*L_UNIT 1 UH

*D_NET TAUNET_9 1.7439
*CONN
*I inst_92:ZN O
*I TAUGATE_9:A I
*CAP
1 inst_92:ZN 0.2611
2 TAUNET_9:1 0.4098
3 TAUNET_9:2 0.5009
4 TAUNET_9:3 0.2843
5 TAUGATE_9:A 0.2878
*RES
2 inst_92:ZN TAUNET_9:1 0.1659
3 TAUNET_9:1 TAUNET_9:2 0.2742
4 TAUNET_9:2 TAUNET_9:3 0.3494
5 TAUNET_9:3 TAUGATE_9:A 0.1485
*END

*D_NET net_244 1.3760
*CONN
*I TAUGATE_5:Z O
*I inst_92:A2 I
*CAP
1 TAUGATE_5:Z 0.2110
2 net_244:1 0.3070
3 net_244:2 0.3583
4 net_244:3 0.1395
5 net_244:4 0.0646
6 net_244:5 0.0794
7 inst_92:A2 0.2161
*RES
2 TAUGATE_5:Z net_244:1 0.1614
3 net_244:1 net_244:2 0.3312
4 net_244:2 net_244:3 0.3755
5 net_244:3 net_244:4 0.4644
6 net_244:4 net_244:5 0.4559
7 net_244:5 inst_92:A2 0.4050
*END

*D_NET net_43 4.1543
*CONN
*I TAUGATE_6:Z O
*I inst_33:A2 I
*I inst_23:A2 I
*I inst_233:A I
*CAP
1 TAUGATE_6:Z 0.1670
2 net_43:1 0.2440
3 net_43:2 0.0332
4 inst_33:A2 0.0406
5 net_43:3 0.3706
6 net_43:4 0.0740
7 net_43:5 0.4871
8 inst_23:A2 0.4951
9 net_43:6 0.3356
10 net_43:7 0.3995
11 net_43:8 0.3845
12 net_43:9 0.4708
13 net_43:10 0.3056
14 inst_233:A 0.3464
*RES
2 TAUGATE_6:Z net_43:1 0.2732
3 net_43:1 net_43:2 0.0073
4 net_43:2 inst_33:A2 0.1308
5 net_43:1 net_43:3 0.4125
6 net_43:3 net_43:4 0.0565
7 net_43:4 net_43:5 0.1285
8 net_43:5 inst_23:A2 0.0292
9 net_43:3 net_43:6 0.0305
10 net_43:6 net_43:7 0.2383
11 net_43:7 net_43:8 0.4020
12 net_43:8 net_43:9 0.2529
13 net_43:9 net_43:10 0.2665
14 net_43:10 inst_233:A 0.4354
*END

*D_NET TAUNET_5 1.2788
*CONN
*I inst_174:ZN O
*I TAUGATE_5:A I
*CAP
1 inst_174:ZN 0.0788
2 TAUNET_5:1 0.3833
3 TAUNET_5:2 0.3292
4 TAUNET_5:3 0.0716
5 TAUNET_5:4 0.2236
6 TAUGATE_5:A 0.1922
*RES
2 inst_174:ZN TAUNET_5:1 0.2805
3 TAUNET_5:1 TAUNET_5:2 0.1322
4 TAUNET_5:2 TAUNET_5:3 0.1905
5 TAUNET_5:3 TAUNET_5:4 0.4017
6 TAUNET_5:4 TAUGATE_5:A 0.4680
*END

*D_NET TAUNET_8 1.2308
*CONN
*I inst_138:ZN O
*I TAUGATE_8:A I
*CAP
1 inst_138:ZN 0.2331
2 TAUNET_8:1 0.3943
3 TAUNET_8:2 0.2211
4 TAUNET_8:3 0.1955
5 TAUGATE_8:A 0.1868
*RES
2 inst_138:ZN TAUNET_8:1 0.4889
3 TAUNET_8:1 TAUNET_8:2 0.0703
4 TAUNET_8:2 TAUNET_8:3 0.3298
5 TAUNET_8:3 TAUGATE_8:A 0.4131
*END

*D_NET net_160 1.4221
*CONN
*I TAUGATE_8:Z O
*I inst_68:A1 I
*CAP
1 TAUGATE_8:Z 0.2621
2 net_160:1 0.1808
3 net_160:2 0.0717
4 net_160:3 0.3990
5 net_160:4 0.4035
6 net_160:5 0.0219
7 inst_68:A1 0.0830
*RES
2 TAUGATE_8:Z net_160:1 0.4539
3 net_160:1 net_160:2 0.1250
4 net_160:2 net_160:3 0.3196
5 net_160:3 net_160:4 0.4976
6 net_160:4 net_160:5 0.3591
7 net_160:5 inst_68:A1 0.2780
*END

*D_NET TAUNET_6 2.6031
*CONN
*I inst_90:ZN O
*I TAUGATE_6:A I
*CAP
1 inst_90:ZN 0.1593
2 TAUNET_6:1 0.3498
3 TAUNET_6:2 0.4055
4 TAUNET_6:3 0.4519
5 TAUNET_6:4 0.4658
6 TAUNET_6:5 0.3690
7 TAUGATE_6:A 0.4019
*RES
2 inst_90:ZN TAUNET_6:1 0.0632
3 TAUNET_6:1 TAUNET_6:2 0.2503
4 TAUNET_6:2 TAUNET_6:3 0.4700
5 TAUNET_6:3 TAUNET_6:4 0.3789
6 TAUNET_6:4 TAUNET_6:5 0.3545
7 TAUNET_6:5 TAUGATE_6:A 0.1033
*END

*D_NET net_201 1.3094
*CONN
*I TAUGATE_7:Z O
*I inst_262:A1 I
*CAP
1 TAUGATE_7:Z 0.1782
2 net_201:1 0.0376
3 net_201:2 0.0972
4 net_201:3 0.3594
5 net_201:4 0.0525
6 net_201:5 0.3248
7 inst_262:A1 0.2597
*RES
2 TAUGATE_7:Z net_201:1 0.1267
3 net_201:1 net_201:2 0.3840
4 net_201:2 net_201:3 0.2434
5 net_201:3 net_201:4 0.3726
6 net_201:4 net_201:5 0.2980
7 net_201:5 inst_262:A1 0.2454
*END

*D_NET TAUNET_7 1.0674
*CONN
*I inst_152:ZN O
*I TAUGATE_7:A I
*CAP
1 inst_152:ZN 0.1921
2 TAUNET_7:1 0.4443
3 TAUNET_7:2 0.1288
4 TAUGATE_7:A 0.3022
*RES
2 inst_152:ZN TAUNET_7:1 0.1405
3 TAUNET_7:1 TAUNET_7:2 0.0668
4 TAUNET_7:2 TAUGATE_7:A 0.3699
*END

*D_NET net_65 2.3423
*CONN
*I TAUGATE_9:Z O
*I inst_26:A1 I
*I inst_254:A I
*CAP
1 TAUGATE_9:Z 0.4004
2 net_65:1 0.1341
3 net_65:2 0.3915
4 net_65:3 0.0282
5 net_65:4 0.3089
6 net_65:5 0.0253
7 inst_254:A 0.3105
8 net_65:6 0.3854
9 inst_26:A1 0.3580
*RES
2 TAUGATE_9:Z net_65:1 0.1881
3 net_65:1 net_65:2 0.2034
4 net_65:2 net_65:3 0.1592
5 net_65:3 net_65:4 0.3147
6 net_65:4 net_65:5 0.2761
7 net_65:5 inst_254:A 0.3643
8 net_65:3 net_65:6 0.3774
9 net_65:6 inst_26:A1 0.2731
*END

