*SPEF "IEEE 1481-1998"
*DESIGN "changes"
*DATE "Tue Dec 02 20:46:04 2014"
*VENDOR "TAU 2015 Contest"
*PROGRAM "Benchmark Parasitic Generator"
*VERSION "0.0"
*DESIGN_FLOW "NETLIST_TYPE_VERILOG"
*DIVIDER /
*DELIMITER :
*BUS_DELIMITER [ ]
*T_UNIT 1 PS
*C_UNIT 1 FF
*R_UNIT 1 KOHM
*L_UNIT 1 UH

*D_NET net_166 1.7439
*CONN
*I inst_54:ZN O
*I inst_1:A1 I
*CAP
1 inst_54:ZN 0.2611
2 net_166:1 0.4098
3 net_166:2 0.5009
4 net_166:3 0.2843
5 inst_1:A1 0.2878
*RES
2 inst_54:ZN net_166:1 0.1659
3 net_166:1 net_166:2 0.2742
4 net_166:2 net_166:3 0.3494
5 net_166:3 inst_1:A1 0.1485
*END

*D_NET net_107 3.1207
*CONN
*I inst_92:ZN O
*I inst_123:A2 I
*I inst_126:A2 I
*I inst_26:A1 I
*CAP
1 inst_92:ZN 0.2110
2 net_107:1 0.3070
3 net_107:2 0.3583
4 net_107:3 0.1395
5 net_107:4 0.0646
6 net_107:5 0.0794
7 inst_126:A2 0.2161
8 net_107:6 0.2440
9 net_107:7 0.0332
10 inst_123:A2 0.0406
11 net_107:8 0.3706
12 net_107:9 0.0740
13 net_107:10 0.4871
14 inst_26:A1 0.4951
*RES
2 inst_92:ZN net_107:1 0.1614
3 net_107:1 net_107:2 0.3312
4 net_107:2 net_107:3 0.3755
5 net_107:3 net_107:4 0.4644
6 net_107:4 net_107:5 0.4559
7 net_107:5 inst_126:A2 0.4050
8 net_107:2 net_107:6 0.2732
9 net_107:6 net_107:7 0.0073
10 net_107:7 inst_123:A2 0.1308
11 net_107:2 net_107:8 0.4125
12 net_107:8 net_107:9 0.0565
13 net_107:9 net_107:10 0.1285
14 net_107:10 inst_26:A1 0.0292
*END

*D_NET net_223 2.3577
*CONN
*I inst_59:ZN O
*I inst_70:A1 I
*CAP
1 inst_59:ZN 0.4507
2 net_223:1 0.3995
3 net_223:2 0.3845
4 net_223:3 0.4708
5 net_223:4 0.3056
6 inst_70:A1 0.3464
*RES
2 inst_59:ZN net_223:1 0.0305
3 net_223:1 net_223:2 0.2383
4 net_223:2 net_223:3 0.4020
5 net_223:3 net_223:4 0.2529
6 net_223:4 inst_70:A1 0.2665
*END

*D_NET net_179 0.9086
*CONN
*I inst_9:ZN O
*I inst_70:A3 I
*CAP
1 inst_9:ZN 0.1977
2 net_179:1 0.3276
3 inst_70:A3 0.3833
*RES
2 inst_9:ZN net_179:1 0.3292
3 net_179:1 inst_70:A3 0.0716
*END

*D_NET net_235 7.4361
*CONN
*P blif_reset_net I
*I inst_257:RN I
*I inst_260:RN I
*I inst_255:RN I
*I inst_256:RN I
*I inst_259:RN I
*I inst_258:RN I
*CAP
1 blif_reset_net 0.1922
2 net_235:1 0.1322
3 net_235:2 0.1905
4 net_235:3 0.4017
5 inst_255:RN 0.4680
6 net_235:4 0.1868
7 net_235:5 0.4889
8 inst_260:RN 0.0703
9 net_235:6 0.3990
10 inst_257:RN 0.4035
11 net_235:7 0.4976
12 net_235:8 0.3591
13 net_235:9 0.2780
14 net_235:10 0.2022
15 inst_256:RN 0.1593
16 net_235:11 0.0632
17 net_235:12 0.2503
18 net_235:13 0.4700
19 net_235:14 0.3789
20 net_235:15 0.3545
21 inst_259:RN 0.1033
22 net_235:16 0.2597
23 net_235:17 0.1267
24 net_235:18 0.3840
25 net_235:19 0.2434
26 inst_258:RN 0.3726
*RES
2 blif_reset_net net_235:1 0.2976
3 net_235:1 net_235:2 0.2331
4 net_235:2 net_235:3 0.2927
5 net_235:3 inst_255:RN 0.3943
6 net_235:2 net_235:4 0.3298
7 net_235:4 net_235:5 0.4131
8 net_235:5 inst_260:RN 0.3310
9 net_235:2 net_235:6 0.0219
10 net_235:6 inst_257:RN 0.0830
11 net_235:2 net_235:7 0.4382
12 net_235:7 net_235:8 0.3498
13 net_235:8 net_235:9 0.4055
14 net_235:9 net_235:10 0.4519
15 net_235:10 inst_256:RN 0.4658
16 net_235:8 net_235:11 0.4316
17 net_235:11 net_235:12 0.1782
18 net_235:12 net_235:13 0.4734
19 net_235:13 net_235:14 0.0376
20 net_235:14 net_235:15 0.0972
21 net_235:15 inst_259:RN 0.3594
22 net_235:2 net_235:16 0.2980
23 net_235:16 net_235:17 0.2454
24 net_235:17 net_235:18 0.4670
25 net_235:18 net_235:19 0.1921
26 net_235:19 inst_258:RN 0.1376
*END

*D_NET net_176 23.0409
*CONN
*I inst_256:QN O
*I inst_11:A1 I
*I inst_0:A2 I
*I inst_138:A1 I
*I inst_144:A1 I
*I inst_49:A1 I
*I inst_73:A1 I
*I inst_67:A2 I
*I inst_121:A1 I
*I inst_4:A1 I
*I inst_116:A1 I
*I inst_109:A1 I
*I inst_123:A1 I
*I inst_35:A1 I
*I inst_77:A2 I
*I inst_42:A2 I
*I inst_26:A2 I
*I inst_25:A2 I
*I inst_20:A2 I
*I inst_3:A1 I
*I inst_90:A1 I
*I inst_24:A2 I
*CAP
1 inst_256:QN 0.1288
2 net_176:1 0.1405
3 net_176:2 0.0668
4 net_176:3 0.3699
5 net_176:4 0.4131
6 inst_3:A1 0.4004
7 net_176:5 0.2034
8 net_176:6 0.1592
9 inst_0:A2 0.3147
10 net_176:7 0.3580
11 net_176:8 0.3774
12 net_176:9 0.2731
13 net_176:10 0.1525
14 inst_138:A1 0.0518
15 net_176:11 0.2239
16 net_176:12 0.0917
17 inst_144:A1 0.4230
18 net_176:13 0.4381
19 net_176:14 0.3484
20 inst_49:A1 0.0801
21 net_176:15 0.4104
22 inst_73:A1 0.0649
23 net_176:16 0.1076
24 net_176:17 0.4606
25 net_176:18 0.3388
26 net_176:19 0.4657
27 net_176:20 0.3595
28 inst_67:A2 0.2471
29 net_176:21 0.3877
30 net_176:22 0.3882
31 net_176:23 0.4950
32 net_176:24 0.0413
33 net_176:25 0.4651
34 inst_121:A1 0.4065
35 net_176:26 0.2195
36 net_176:27 0.1533
37 net_176:28 0.4091
38 inst_4:A1 0.2613
39 net_176:29 0.1210
40 net_176:30 0.1733
41 net_176:31 0.1014
42 net_176:32 0.0283
43 net_176:33 0.2763
44 inst_116:A1 0.2945
45 net_176:34 0.3629
46 inst_109:A1 0.2821
47 net_176:35 0.3735
48 net_176:36 0.1079
49 net_176:37 0.3323
50 inst_123:A1 0.2907
51 net_176:38 0.0903
52 net_176:39 0.0485
53 net_176:40 0.4602
54 inst_35:A1 0.4262
55 net_176:41 0.3734
56 net_176:42 0.1567
57 net_176:43 0.1247
58 inst_77:A2 0.2439
59 net_176:44 0.3275
60 net_176:45 0.0169
61 inst_42:A2 0.4026
62 net_176:46 0.3875
63 net_176:47 0.4796
64 net_176:48 0.3740
65 net_176:49 0.1554
66 net_176:50 0.0209
67 inst_26:A2 0.4380
68 net_176:51 0.2438
69 net_176:52 0.2969
70 net_176:53 0.3091
71 net_176:54 0.5006
72 net_176:55 0.2264
73 inst_25:A2 0.3973
74 net_176:56 0.0882
75 inst_20:A2 0.4386
76 net_176:57 0.1130
77 net_176:58 0.1026
78 inst_11:A1 0.1939
79 net_176:59 0.1138
80 net_176:60 0.4033
81 net_176:61 0.3663
82 net_176:62 0.2540
83 net_176:63 0.0526
84 inst_90:A1 0.2388
85 net_176:64 0.4935
86 inst_24:A2 0.2412
*RES
2 inst_256:QN net_176:1 0.4814
3 net_176:1 net_176:2 0.1341
4 net_176:2 net_176:3 0.3915
5 net_176:3 net_176:4 0.0282
6 net_176:4 inst_3:A1 0.3089
7 net_176:3 net_176:5 0.2761
8 net_176:5 net_176:6 0.3643
9 net_176:6 inst_0:A2 0.2288
10 net_176:1 net_176:7 0.2548
11 net_176:7 net_176:8 0.2154
12 net_176:8 net_176:9 0.4921
13 net_176:9 net_176:10 0.1648
14 net_176:10 inst_138:A1 0.1855
15 net_176:7 net_176:11 0.1494
16 net_176:11 net_176:12 0.3290
17 net_176:12 inst_144:A1 0.1620
18 net_176:7 net_176:13 0.1392
19 net_176:13 net_176:14 0.1891
20 net_176:14 inst_49:A1 0.0464
21 net_176:1 net_176:15 0.0510
22 net_176:15 inst_73:A1 0.1600
23 net_176:6 net_176:16 0.0832
24 net_176:16 net_176:17 0.0580
25 net_176:17 net_176:18 0.3736
26 net_176:18 net_176:19 0.0395
27 net_176:19 net_176:20 0.3644
28 net_176:20 inst_67:A2 0.0829
29 net_176:9 net_176:21 0.3164
30 net_176:21 net_176:22 0.3513
31 net_176:22 net_176:23 0.1165
32 net_176:23 net_176:24 0.0986
33 net_176:24 net_176:25 0.2243
34 net_176:25 inst_121:A1 0.1286
35 net_176:21 net_176:26 0.3587
36 net_176:26 net_176:27 0.1869
37 net_176:27 net_176:28 0.4974
38 net_176:28 inst_4:A1 0.3047
39 net_176:7 net_176:29 0.3177
40 net_176:29 net_176:30 0.2101
41 net_176:30 net_176:31 0.3390
42 net_176:31 net_176:32 0.2046
43 net_176:32 net_176:33 0.3404
44 net_176:33 inst_116:A1 0.1317
45 net_176:24 net_176:34 0.3900
46 net_176:34 inst_109:A1 0.0557
47 net_176:9 net_176:35 0.0362
48 net_176:35 net_176:36 0.4966
49 net_176:36 net_176:37 0.4101
50 net_176:37 inst_123:A1 0.2702
51 net_176:4 net_176:38 0.2009
52 net_176:38 net_176:39 0.3114
53 net_176:39 net_176:40 0.3090
54 net_176:40 inst_35:A1 0.3972
55 net_176:20 net_176:41 0.2588
56 net_176:41 net_176:42 0.4474
57 net_176:42 net_176:43 0.3528
58 net_176:43 inst_77:A2 0.0472
59 net_176:39 net_176:44 0.4684
60 net_176:44 net_176:45 0.2490
61 net_176:45 inst_42:A2 0.0579
62 net_176:26 net_176:46 0.4130
63 net_176:46 net_176:47 0.4990
64 net_176:47 net_176:48 0.2134
65 net_176:48 net_176:49 0.1115
66 net_176:49 net_176:50 0.4947
67 net_176:50 inst_26:A2 0.3666
68 net_176:29 net_176:51 0.2044
69 net_176:51 net_176:52 0.1531
70 net_176:52 net_176:53 0.3886
71 net_176:53 net_176:54 0.2618
72 net_176:54 net_176:55 0.2468
73 net_176:55 inst_25:A2 0.4002
74 net_176:20 net_176:56 0.2715
75 net_176:56 inst_20:A2 0.0199
76 net_176:47 net_176:57 0.1095
77 net_176:57 net_176:58 0.0212
78 net_176:58 inst_11:A1 0.1417
79 net_176:26 net_176:59 0.1787
80 net_176:59 net_176:60 0.3603
81 net_176:60 net_176:61 0.0603
82 net_176:61 net_176:62 0.0863
83 net_176:62 net_176:63 0.3102
84 net_176:63 inst_90:A1 0.1239
85 net_176:32 net_176:64 0.3995
86 net_176:64 inst_24:A2 0.4441
*END

*D_NET net_215 0.5340
*CONN
*I inst_11:ZN O
*I inst_89:A1 I
*CAP
1 inst_11:ZN 0.0848
2 net_215:1 0.0274
3 inst_89:A1 0.4218
*RES
2 inst_11:ZN net_215:1 0.2061
3 net_215:1 inst_89:A1 0.2110
*END

*D_NET net_61 0.9202
*CONN
*I inst_37:ZN O
*I inst_18:A2 I
*CAP
1 inst_37:ZN 0.3985
2 net_61:1 0.0725
3 inst_18:A2 0.4492
*RES
2 inst_37:ZN net_61:1 0.3124
3 net_61:1 inst_18:A2 0.3685
*END

*D_NET net_132 1.0045
*CONN
*I inst_14:ZN O
*I inst_17:A1 I
*CAP
1 inst_14:ZN 0.1801
2 net_132:1 0.3420
3 net_132:2 0.0965
4 net_132:3 0.2555
5 inst_17:A1 0.1304
*RES
2 inst_14:ZN net_132:1 0.3675
3 net_132:1 net_132:2 0.4634
4 net_132:2 net_132:3 0.2869
5 net_132:3 inst_17:A1 0.1646
*END

*D_NET vsync 0.8697
*CONN
*I inst_89:ZN O
*P vsync O
*CAP
1 inst_89:ZN 0.0327
2 vsync:1 0.3721
3 vsync 0.4648
*RES
2 inst_89:ZN vsync:1 0.2376
3 vsync:1 vsync 0.1146
*END

*D_NET net_6 0.6447
*CONN
*P pcnt12 I
*I inst_100:A2 I
*CAP
1 pcnt12 0.1439
2 net_6:1 0.2502
3 inst_100:A2 0.2506
*RES
2 pcnt12 net_6:1 0.4486
3 net_6:1 inst_100:A2 0.0641
*END

*D_NET net_129 0.4185
*CONN
*I inst_116:ZN O
*I inst_16:A3 I
*I inst_132:A1 I
*CAP
1 inst_116:ZN 0.0079
2 net_129:1 0.2219
3 inst_16:A3 0.1001
4 net_129:2 0.0620
5 inst_132:A1 0.0267
*RES
2 inst_116:ZN net_129:1 0.2747
3 net_129:1 inst_16:A3 0.1704
4 net_129:1 net_129:2 0.1278
5 net_129:2 inst_132:A1 0.1079
*END

*D_NET net_119 2.6148
*CONN
*I inst_119:ZN O
*I inst_11:A3 I
*I inst_51:A2 I
*CAP
1 inst_119:ZN 0.1254
2 net_119:1 0.4751
3 net_119:2 0.3195
4 net_119:3 0.4748
5 net_119:4 0.2505
6 inst_51:A2 0.2036
7 net_119:5 0.2723
8 net_119:6 0.2079
9 net_119:7 0.2449
10 inst_11:A3 0.0406
*RES
2 inst_119:ZN net_119:1 0.3990
3 net_119:1 net_119:2 0.0185
4 net_119:2 net_119:3 0.3777
5 net_119:3 net_119:4 0.2437
6 net_119:4 inst_51:A2 0.3641
7 net_119:1 net_119:5 0.0917
8 net_119:5 net_119:6 0.0078
9 net_119:6 net_119:7 0.0227
10 net_119:7 inst_11:A3 0.0264
*END

*D_NET net_12 17.0150
*CONN
*I inst_255:QN O
*I inst_30:A2 I
*I inst_266:A1 I
*I inst_125:A1 I
*I inst_129:A1 I
*I inst_97:A2 I
*I inst_137:A1 I
*I inst_61:A2 I
*I inst_263:A2 I
*I inst_44:A2 I
*I inst_115:A1 I
*I inst_118:A1 I
*I inst_35:A2 I
*I inst_46:A1 I
*I inst_39:A1 I
*I inst_31:A2 I
*I inst_3:A2 I
*CAP
1 inst_255:QN 0.1906
2 net_12:1 0.0937
3 net_12:2 0.2944
4 inst_30:A2 0.3987
5 net_12:3 0.1157
6 net_12:4 0.1901
7 net_12:5 0.2138
8 net_12:6 0.5008
9 net_12:7 0.2979
10 inst_266:A1 0.3428
11 net_12:8 0.3676
12 net_12:9 0.1603
13 net_12:10 0.4423
14 net_12:11 0.1159
15 net_12:12 0.4527
16 inst_125:A1 0.1465
17 net_12:13 0.1861
18 net_12:14 0.4367
19 inst_129:A1 0.3452
20 net_12:15 0.1692
21 inst_97:A2 0.4407
22 net_12:16 0.2874
23 net_12:17 0.3072
24 net_12:18 0.2768
25 inst_137:A1 0.1679
26 net_12:19 0.4796
27 net_12:20 0.3806
28 net_12:21 0.4946
29 inst_61:A2 0.4608
30 net_12:22 0.4103
31 net_12:23 0.0845
32 inst_263:A2 0.1888
33 net_12:24 0.2069
34 inst_44:A2 0.0491
35 net_12:25 0.4110
36 net_12:26 0.0191
37 inst_115:A1 0.3538
38 net_12:27 0.4025
39 net_12:28 0.5010
40 net_12:29 0.3538
41 inst_118:A1 0.4649
42 net_12:30 0.3761
43 net_12:31 0.0616
44 net_12:32 0.4298
45 inst_35:A2 0.2857
46 net_12:33 0.1284
47 net_12:34 0.0036
48 net_12:35 0.1731
49 net_12:36 0.2737
50 net_12:37 0.3095
51 inst_46:A1 0.4895
52 net_12:38 0.4915
53 net_12:39 0.0683
54 inst_39:A1 0.2135
55 net_12:40 0.1477
56 inst_31:A2 0.4806
57 net_12:41 0.1100
58 net_12:42 0.2818
59 net_12:43 0.3290
60 inst_3:A2 0.1592
*RES
2 inst_255:QN net_12:1 0.0209
3 net_12:1 net_12:2 0.1182
4 net_12:2 inst_30:A2 0.1067
5 net_12:2 net_12:3 0.2325
6 net_12:3 net_12:4 0.2733
7 net_12:4 net_12:5 0.1266
8 net_12:5 net_12:6 0.3814
9 net_12:6 net_12:7 0.1363
10 net_12:7 inst_266:A1 0.3277
11 net_12:5 net_12:8 0.1463
12 net_12:8 net_12:9 0.4621
13 net_12:9 net_12:10 0.4065
14 net_12:10 net_12:11 0.0227
15 net_12:11 net_12:12 0.2236
16 net_12:12 inst_125:A1 0.4114
17 net_12:2 net_12:13 0.0313
18 net_12:13 net_12:14 0.1217
19 net_12:14 inst_129:A1 0.0111
20 net_12:3 net_12:15 0.4978
21 net_12:15 inst_97:A2 0.2563
22 net_12:8 net_12:16 0.2053
23 net_12:16 net_12:17 0.2140
24 net_12:17 net_12:18 0.3306
25 net_12:18 inst_137:A1 0.1569
26 net_12:10 net_12:19 0.4692
27 net_12:19 net_12:20 0.4766
28 net_12:20 net_12:21 0.0589
29 net_12:21 inst_61:A2 0.0962
30 net_12:11 net_12:22 0.1436
31 net_12:22 net_12:23 0.1762
32 net_12:23 inst_263:A2 0.4748
33 net_12:4 net_12:24 0.4137
34 net_12:24 inst_44:A2 0.3046
35 net_12:14 net_12:25 0.4300
36 net_12:25 net_12:26 0.3629
37 net_12:26 inst_115:A1 0.0787
38 net_12:12 net_12:27 0.0482
39 net_12:27 net_12:28 0.1062
40 net_12:28 net_12:29 0.2963
41 net_12:29 inst_118:A1 0.4911
42 net_12:13 net_12:30 0.2634
43 net_12:30 net_12:31 0.0470
44 net_12:31 net_12:32 0.0745
45 net_12:32 inst_35:A2 0.1738
46 net_12:28 net_12:33 0.4033
47 net_12:33 net_12:34 0.2734
48 net_12:34 net_12:35 0.3461
49 net_12:35 net_12:36 0.3729
50 net_12:36 net_12:37 0.0418
51 net_12:37 inst_46:A1 0.3671
52 net_12:28 net_12:38 0.4484
53 net_12:38 net_12:39 0.1379
54 net_12:39 inst_39:A1 0.1139
55 net_12:4 net_12:40 0.3473
56 net_12:40 inst_31:A2 0.1114
57 net_12:2 net_12:41 0.4236
58 net_12:41 net_12:42 0.3328
59 net_12:42 net_12:43 0.1906
60 net_12:43 inst_3:A2 0.5003
*END

*D_NET net_117 1.0480
*CONN
*I inst_263:ZN O
*I inst_56:A1 I
*CAP
1 inst_263:ZN 0.3044
2 net_117:1 0.0096
3 net_117:2 0.4963
4 inst_56:A1 0.2377
*RES
2 inst_263:ZN net_117:1 0.2571
3 net_117:1 net_117:2 0.3610
4 net_117:2 inst_56:A1 0.0042
*END

*D_NET cnt10 2.1902
*CONN
*P cnt10 I
*I inst_98:A2 I
*I inst_34:A1 I
*CAP
1 cnt10 0.3841
2 cnt10:1 0.2352
3 cnt10:2 0.3112
4 cnt10:3 0.1345
5 cnt10:4 0.4134
6 inst_34:A1 0.0741
7 cnt10:5 0.2343
8 cnt10:6 0.1106
9 cnt10:7 0.0283
10 inst_98:A2 0.2644
*RES
2 cnt10 cnt10:1 0.4290
3 cnt10:1 cnt10:2 0.4891
4 cnt10:2 cnt10:3 0.0621
5 cnt10:3 cnt10:4 0.2122
6 cnt10:4 inst_34:A1 0.2034
7 cnt10:1 cnt10:5 0.3395
8 cnt10:5 cnt10:6 0.4160
9 cnt10:6 cnt10:7 0.1311
10 cnt10:7 inst_98:A2 0.1702
*END

*D_NET net_151 0.8144
*CONN
*I inst_135:ZN O
*I inst_66:A1 I
*CAP
1 inst_135:ZN 0.0383
2 net_151:1 0.2177
3 net_151:2 0.0520
4 net_151:3 0.1787
5 inst_66:A1 0.3277
*RES
2 inst_135:ZN net_151:1 0.2308
3 net_151:1 net_151:2 0.1825
4 net_151:2 net_151:3 0.4154
5 net_151:3 inst_66:A1 0.4205
*END

*D_NET net_53 0.9305
*CONN
*I inst_62:ZN O
*I inst_116:A2 I
*CAP
1 inst_62:ZN 0.3303
2 net_53:1 0.3450
3 inst_116:A2 0.2552
*RES
2 inst_62:ZN net_53:1 0.2397
3 net_53:1 inst_116:A2 0.3943
*END

*D_NET net_93 2.0445
*CONN
*I inst_114:ZN O
*I inst_135:A2 I
*I inst_16:A1 I
*CAP
1 inst_114:ZN 0.3586
2 net_93:1 0.2132
3 net_93:2 0.3448
4 inst_135:A2 0.2539
5 net_93:3 0.3825
6 inst_16:A1 0.4916
*RES
2 inst_114:ZN net_93:1 0.0169
3 net_93:1 net_93:2 0.2910
4 net_93:2 inst_135:A2 0.3418
5 net_93:1 net_93:3 0.0258
6 net_93:3 inst_16:A1 0.0722
*END

*D_NET net_210 0.1761
*CONN
*I inst_57:ZN O
*I inst_88:A2 I
*CAP
1 inst_57:ZN 0.0274
2 net_210:1 0.0758
3 inst_88:A2 0.0730
*RES
2 inst_57:ZN net_210:1 0.2996
3 net_210:1 inst_88:A2 0.1500
*END

*D_NET net_205 1.1459
*CONN
*I inst_17:ZN O
*I inst_72:A2 I
*CAP
1 inst_17:ZN 0.0605
2 net_205:1 0.4347
3 net_205:2 0.2976
4 inst_72:A2 0.3531
*RES
2 inst_17:ZN net_205:1 0.0316
3 net_205:1 net_205:2 0.1823
4 net_205:2 inst_72:A2 0.0755
*END

*D_NET net_135 1.1637
*CONN
*I inst_47:ZN O
*I inst_17:A3 I
*CAP
1 inst_47:ZN 0.3515
2 net_135:1 0.4269
3 net_135:2 0.0493
4 net_135:3 0.0341
5 inst_17:A3 0.3020
*RES
2 inst_47:ZN net_135:1 0.3389
3 net_135:1 net_135:2 0.4000
4 net_135:2 net_135:3 0.0188
5 net_135:3 inst_17:A3 0.4709
*END

*D_NET net_242 0.8262
*CONN
*I inst_60:ZN O
*I inst_72:A1 I
*CAP
1 inst_60:ZN 0.0122
2 net_242:1 0.0936
3 net_242:2 0.3051
4 net_242:3 0.1197
5 inst_72:A1 0.2956
*RES
2 inst_60:ZN net_242:1 0.2210
3 net_242:1 net_242:2 0.0970
4 net_242:2 net_242:3 0.2798
5 net_242:3 inst_72:A1 0.3150
*END

*D_NET net_130 1.2664
*CONN
*I inst_132:ZN O
*I inst_149:A2 I
*CAP
1 inst_132:ZN 0.2108
2 net_130:1 0.0161
3 net_130:2 0.2047
4 net_130:3 0.3729
5 net_130:4 0.0610
6 inst_149:A2 0.4010
*RES
2 inst_132:ZN net_130:1 0.2910
3 net_130:1 net_130:2 0.3768
4 net_130:2 net_130:3 0.3083
5 net_130:3 net_130:4 0.1250
6 net_130:4 inst_149:A2 0.3526
*END

*D_NET cclr 1.6292
*CONN
*I inst_2:ZN O
*P cclr O
*CAP
1 inst_2:ZN 0.3144
2 cclr:1 0.0820
3 cclr:2 0.2174
4 cclr:3 0.3638
5 cclr:4 0.4097
6 cclr 0.2418
*RES
2 inst_2:ZN cclr:1 0.4080
3 cclr:1 cclr:2 0.3118
4 cclr:2 cclr:3 0.4981
5 cclr:3 cclr:4 0.3134
6 cclr:4 cclr 0.4059
*END

*D_NET net_147 0.9494
*CONN
*I inst_51:ZN O
*I inst_55:A2 I
*CAP
1 inst_51:ZN 0.0910
2 net_147:1 0.3093
3 net_147:2 0.3342
4 inst_55:A2 0.2150
*RES
2 inst_51:ZN net_147:1 0.0109
3 net_147:1 net_147:2 0.1830
4 net_147:2 inst_55:A2 0.2298
*END

*D_NET net_220 0.1587
*CONN
*I inst_85:ZN O
*I inst_60:A2 I
*CAP
1 inst_85:ZN 0.0044
2 net_220:1 0.0476
3 net_220:2 0.0521
4 inst_60:A2 0.0546
*RES
2 inst_85:ZN net_220:1 0.0043
3 net_220:1 net_220:2 0.2737
4 net_220:2 inst_60:A2 0.4724
*END

*D_NET pclr 1.0994
*CONN
*I inst_157:ZN O
*P pclr O
*CAP
1 inst_157:ZN 0.2426
2 pclr:1 0.2784
3 pclr:2 0.2008
4 pclr 0.3776
*RES
2 inst_157:ZN pclr:1 0.2937
3 pclr:1 pclr:2 0.0093
4 pclr:2 pclr 0.2822
*END

*D_NET net_101 1.0927
*CONN
*I inst_121:ZN O
*I inst_143:A2 I
*CAP
1 inst_121:ZN 0.0309
2 net_101:1 0.3809
3 net_101:2 0.3567
4 inst_143:A2 0.3242
*RES
2 inst_121:ZN net_101:1 0.2336
3 net_101:1 net_101:2 0.3863
4 net_101:2 inst_143:A2 0.2365
*END

*D_NET net_32 2.6336
*CONN
*I inst_264:ZN O
*I inst_143:A1 I
*I inst_107:A2 I
*I inst_73:A3 I
*CAP
1 inst_264:ZN 0.3572
2 net_32:1 0.2185
3 net_32:2 0.2266
4 net_32:3 0.2538
5 inst_143:A1 0.1297
6 net_32:4 0.1830
7 net_32:5 0.3035
8 net_32:6 0.4053
9 net_32:7 0.0863
10 inst_107:A2 0.2362
11 net_32:8 0.1351
12 inst_73:A3 0.0984
*RES
2 inst_264:ZN net_32:1 0.4791
3 net_32:1 net_32:2 0.2417
4 net_32:2 net_32:3 0.2444
5 net_32:3 inst_143:A1 0.4262
6 net_32:3 net_32:4 0.1365
7 net_32:4 net_32:5 0.0277
8 net_32:5 net_32:6 0.4263
9 net_32:6 net_32:7 0.2912
10 net_32:7 inst_107:A2 0.1111
11 net_32:6 net_32:8 0.0368
12 net_32:8 inst_73:A3 0.4376
*END

*D_NET net_187 1.3959
*CONN
*I inst_261:ZN O
*I inst_56:A2 I
*CAP
1 inst_261:ZN 0.1283
2 net_187:1 0.3234
3 net_187:2 0.4610
4 inst_56:A2 0.4832
*RES
2 inst_261:ZN net_187:1 0.2776
3 net_187:1 net_187:2 0.3781
4 net_187:2 inst_56:A2 0.3766
*END

*D_NET csm 1.4006
*CONN
*I inst_65:ZN O
*P csm O
*CAP
1 inst_65:ZN 0.3877
2 csm:1 0.3738
3 csm:2 0.4556
4 csm 0.1835
*RES
2 inst_65:ZN csm:1 0.0020
3 csm:1 csm:2 0.2614
4 csm:2 csm 0.3010
*END

*D_NET net_90 2.4656
*CONN
*I inst_110:ZN O
*I inst_4:A2 I
*I inst_71:A3 I
*CAP
1 inst_110:ZN 0.4372
2 net_90:1 0.1153
3 net_90:2 0.3810
4 inst_4:A2 0.1100
5 net_90:3 0.2343
6 net_90:4 0.0981
7 net_90:5 0.3461
8 net_90:6 0.2382
9 net_90:7 0.4109
10 inst_71:A3 0.0945
*RES
2 inst_110:ZN net_90:1 0.1662
3 net_90:1 net_90:2 0.3178
4 net_90:2 inst_4:A2 0.2541
5 net_90:1 net_90:3 0.2326
6 net_90:3 net_90:4 0.0121
7 net_90:4 net_90:5 0.2674
8 net_90:5 net_90:6 0.2072
9 net_90:6 net_90:7 0.0414
10 net_90:7 inst_71:A3 0.2455
*END

*D_NET net_100 5.4036
*CONN
*I inst_22:ZN O
*I inst_37:A1 I
*I inst_121:A2 I
*I inst_146:A1 I
*I inst_105:A1 I
*CAP
1 inst_22:ZN 0.0138
2 net_100:1 0.3131
3 net_100:2 0.4392
4 net_100:3 0.4048
5 net_100:4 0.0368
6 net_100:5 0.3283
7 inst_121:A2 0.2266
8 net_100:6 0.2966
9 net_100:7 0.3013
10 net_100:8 0.0758
11 inst_37:A1 0.0262
12 net_100:9 0.3805
13 net_100:10 0.2523
14 net_100:11 0.0497
15 inst_146:A1 0.4938
16 net_100:12 0.4364
17 net_100:13 0.2454
18 net_100:14 0.4527
19 net_100:15 0.2663
20 inst_105:A1 0.3641
*RES
2 inst_22:ZN net_100:1 0.4199
3 net_100:1 net_100:2 0.3736
4 net_100:2 net_100:3 0.3306
5 net_100:3 net_100:4 0.3042
6 net_100:4 net_100:5 0.1317
7 net_100:5 inst_121:A2 0.1481
8 net_100:3 net_100:6 0.3812
9 net_100:6 net_100:7 0.0656
10 net_100:7 net_100:8 0.1550
11 net_100:8 inst_37:A1 0.0047
12 net_100:3 net_100:9 0.3913
13 net_100:9 net_100:10 0.2131
14 net_100:10 net_100:11 0.3201
15 net_100:11 inst_146:A1 0.0320
16 net_100:7 net_100:12 0.1740
17 net_100:12 net_100:13 0.2701
18 net_100:13 net_100:14 0.3351
19 net_100:14 net_100:15 0.4105
20 net_100:15 inst_105:A1 0.3004
*END

*D_NET net_69 6.2234
*CONN
*I inst_109:ZN O
*I inst_127:A2 I
*I inst_134:A1 I
*I inst_131:A1 I
*I inst_5:A2 I
*CAP
1 inst_109:ZN 0.1341
2 net_69:1 0.1706
3 inst_131:A1 0.3812
4 net_69:2 0.3573
5 net_69:3 0.4559
6 net_69:4 0.3575
7 net_69:5 0.1715
8 net_69:6 0.3050
9 inst_134:A1 0.3594
10 net_69:7 0.3318
11 net_69:8 0.3308
12 net_69:9 0.4080
13 inst_127:A2 0.4669
14 net_69:10 0.3838
15 net_69:11 0.2033
16 net_69:12 0.3263
17 net_69:13 0.4574
18 net_69:14 0.4683
19 inst_5:A2 0.1543
*RES
2 inst_109:ZN net_69:1 0.0751
3 net_69:1 inst_131:A1 0.1227
4 net_69:1 net_69:2 0.4902
5 net_69:2 net_69:3 0.4716
6 net_69:3 net_69:4 0.2112
7 net_69:4 net_69:5 0.1762
8 net_69:5 net_69:6 0.1166
9 net_69:6 inst_134:A1 0.1660
10 net_69:2 net_69:7 0.1932
11 net_69:7 net_69:8 0.0675
12 net_69:8 net_69:9 0.0053
13 net_69:9 inst_127:A2 0.1459
14 net_69:1 net_69:10 0.4873
15 net_69:10 net_69:11 0.1669
16 net_69:11 net_69:12 0.4800
17 net_69:12 net_69:13 0.4518
18 net_69:13 net_69:14 0.0570
19 net_69:14 inst_5:A2 0.4909
*END

*D_NET net_85 1.4269
*CONN
*I inst_41:ZN O
*I inst_261:A4 I
*CAP
1 inst_41:ZN 0.5008
2 net_85:1 0.2457
3 net_85:2 0.4210
4 inst_261:A4 0.2594
*RES
2 inst_41:ZN net_85:1 0.3565
3 net_85:1 net_85:2 0.4074
4 net_85:2 inst_261:A4 0.4309
*END

*D_NET net_252 1.6029
*CONN
*I inst_96:ZN O
*I inst_80:A3 I
*CAP
1 inst_96:ZN 0.2931
2 net_252:1 0.2246
3 net_252:2 0.3320
4 net_252:3 0.3870
5 inst_80:A3 0.3663
*RES
2 inst_96:ZN net_252:1 0.1512
3 net_252:1 net_252:2 0.1368
4 net_252:2 net_252:3 0.4493
5 net_252:3 inst_80:A3 0.4663
*END

*D_NET net_124 1.5003
*CONN
*I inst_129:ZN O
*I inst_71:A1 I
*CAP
1 inst_129:ZN 0.1873
2 net_124:1 0.3589
3 net_124:2 0.4697
4 inst_71:A1 0.4844
*RES
2 inst_129:ZN net_124:1 0.0401
3 net_124:1 net_124:2 0.2861
4 net_124:2 inst_71:A1 0.1883
*END

*D_NET cnt284 3.4750
*CONN
*P cnt284 I
*I inst_160:A2 I
*I inst_51:A1 I
*I inst_79:A3 I
*I inst_101:A1 I
*CAP
1 cnt284 0.0604
2 cnt284:1 0.2921
3 cnt284:2 0.4162
4 cnt284:3 0.1285
5 cnt284:4 0.0491
6 inst_79:A3 0.3511
7 cnt284:5 0.2080
8 inst_51:A1 0.3529
9 cnt284:6 0.4026
10 inst_160:A2 0.2784
11 cnt284:7 0.1530
12 cnt284:8 0.2582
13 cnt284:9 0.4484
14 inst_101:A1 0.0762
*RES
2 cnt284 cnt284:1 0.2111
3 cnt284:1 cnt284:2 0.3010
4 cnt284:2 cnt284:3 0.1515
5 cnt284:3 cnt284:4 0.0492
6 cnt284:4 inst_79:A3 0.2707
7 cnt284:2 cnt284:5 0.4886
8 cnt284:5 inst_51:A1 0.3648
9 cnt284:5 cnt284:6 0.1803
10 cnt284:6 inst_160:A2 0.0882
11 cnt284:2 cnt284:7 0.1986
12 cnt284:7 cnt284:8 0.3922
13 cnt284:8 cnt284:9 0.3950
14 cnt284:9 inst_101:A1 0.2666
*END

*D_NET cblank 2.0823
*CONN
*I inst_86:ZN O
*P cblank O
*CAP
1 inst_86:ZN 0.4671
2 cblank:1 0.3936
3 cblank:2 0.4880
4 cblank:3 0.4169
5 cblank 0.3167
*RES
2 inst_86:ZN cblank:1 0.3376
3 cblank:1 cblank:2 0.1073
4 cblank:2 cblank:3 0.3579
5 cblank:3 cblank 0.1300
*END

*D_NET net_161 0.8732
*CONN
*I inst_269:ZN O
*I inst_84:A1 I
*CAP
1 inst_269:ZN 0.2362
2 net_161:1 0.1996
3 net_161:2 0.3123
4 inst_84:A1 0.1251
*RES
2 inst_269:ZN net_161:1 0.0048
3 net_161:1 net_161:2 0.3126
4 net_161:2 inst_84:A1 0.0195
*END

*D_NET net_141 23.0006
*CONN
*I inst_260:QN O
*I inst_148:A1 I
*I inst_142:A1 I
*I inst_92:A2 I
*I inst_264:A1 I
*I inst_93:A2 I
*I inst_48:A1 I
*I inst_156:A1 I
*I inst_78:A2 I
*I inst_58:A1 I
*I inst_76:A2 I
*I inst_155:A1 I
*I inst_141:A1 I
*I inst_50:A1 I
*I inst_15:A2 I
*I inst_136:A1 I
*I inst_49:A2 I
*I inst_114:A1 I
*I inst_103:A1 I
*I inst_33:A1 I
*I inst_31:A1 I
*I inst_40:A1 I
*I inst_149:A1 I
*I inst_265:A1 I
*I inst_22:A2 I
*CAP
1 inst_260:QN 0.3700
2 net_141:1 0.3466
3 net_141:2 0.4948
4 net_141:3 0.4038
5 net_141:4 0.1954
6 inst_92:A2 0.0063
7 net_141:5 0.2231
8 inst_142:A1 0.2934
9 net_141:6 0.0765
10 net_141:7 0.1980
11 net_141:8 0.3226
12 inst_148:A1 0.1282
13 net_141:9 0.0714
14 net_141:10 0.2110
15 net_141:11 0.2588
16 net_141:12 0.0339
17 inst_264:A1 0.0519
18 net_141:13 0.3416
19 inst_93:A2 0.4099
20 net_141:14 0.1516
21 net_141:15 0.2746
22 inst_48:A1 0.4228
23 net_141:16 0.4926
24 net_141:17 0.0580
25 net_141:18 0.3810
26 net_141:19 0.2195
27 net_141:20 0.2042
28 inst_156:A1 0.2030
29 net_141:21 0.0857
30 net_141:22 0.2654
31 net_141:23 0.2245
32 net_141:24 0.4797
33 net_141:25 0.0551
34 inst_78:A2 0.1877
35 net_141:26 0.2766
36 net_141:27 0.3086
37 net_141:28 0.2353
38 inst_58:A1 0.4838
39 net_141:29 0.3681
40 net_141:30 0.4419
41 net_141:31 0.1561
42 net_141:32 0.1347
43 net_141:33 0.0224
44 inst_76:A2 0.3933
45 net_141:34 0.0071
46 inst_155:A1 0.2242
47 net_141:35 0.4721
48 net_141:36 0.1185
49 net_141:37 0.4585
50 inst_141:A1 0.3703
51 net_141:38 0.1640
52 net_141:39 0.1778
53 net_141:40 0.3155
54 net_141:41 0.4909
55 net_141:42 0.2285
56 inst_50:A1 0.2293
57 net_141:43 0.3973
58 net_141:44 0.0682
59 net_141:45 0.0813
60 inst_15:A2 0.2235
61 net_141:46 0.1177
62 net_141:47 0.1130
63 net_141:48 0.0719
64 inst_136:A1 0.2913
65 net_141:49 0.4330
66 net_141:50 0.3792
67 inst_49:A2 0.3945
68 net_141:51 0.3986
69 inst_114:A1 0.0342
70 net_141:52 0.0789
71 net_141:53 0.1418
72 net_141:54 0.2162
73 net_141:55 0.3480
74 net_141:56 0.3423
75 inst_103:A1 0.3091
76 net_141:57 0.2194
77 net_141:58 0.0694
78 net_141:59 0.1731
79 net_141:60 0.0340
80 inst_33:A1 0.1910
81 net_141:61 0.1398
82 inst_31:A1 0.3850
83 net_141:62 0.3839
84 net_141:63 0.0178
85 inst_40:A1 0.1655
86 net_141:64 0.1490
87 inst_149:A1 0.4082
88 net_141:65 0.1239
89 net_141:66 0.3524
90 net_141:67 0.4065
91 net_141:68 0.3838
92 net_141:69 0.2328
93 inst_265:A1 0.0616
94 net_141:70 0.1904
95 inst_22:A2 0.2527
*RES
2 inst_260:QN net_141:1 0.4904
3 net_141:1 net_141:2 0.0915
4 net_141:2 net_141:3 0.4619
5 net_141:3 net_141:4 0.1065
6 net_141:4 inst_92:A2 0.1990
7 net_141:3 net_141:5 0.0661
8 net_141:5 inst_142:A1 0.0281
9 net_141:1 net_141:6 0.2766
10 net_141:6 net_141:7 0.4045
11 net_141:7 net_141:8 0.4267
12 net_141:8 inst_148:A1 0.4596
13 net_141:7 net_141:9 0.4874
14 net_141:9 net_141:10 0.0374
15 net_141:10 net_141:11 0.2489
16 net_141:11 net_141:12 0.2584
17 net_141:12 inst_264:A1 0.0346
18 net_141:11 net_141:13 0.1540
19 net_141:13 inst_93:A2 0.0325
20 net_141:3 net_141:14 0.1417
21 net_141:14 net_141:15 0.3754
22 net_141:15 inst_48:A1 0.2016
23 net_141:6 net_141:16 0.2656
24 net_141:16 net_141:17 0.4413
25 net_141:17 net_141:18 0.1336
26 net_141:18 net_141:19 0.4042
27 net_141:19 net_141:20 0.0451
28 net_141:20 inst_156:A1 0.2391
29 net_141:1 net_141:21 0.0973
30 net_141:21 net_141:22 0.4235
31 net_141:22 net_141:23 0.1903
32 net_141:23 net_141:24 0.2143
33 net_141:24 net_141:25 0.0701
34 net_141:25 inst_78:A2 0.2421
35 net_141:24 net_141:26 0.0722
36 net_141:26 net_141:27 0.3539
37 net_141:27 net_141:28 0.3446
38 net_141:28 inst_58:A1 0.0192
39 net_141:8 net_141:29 0.2244
40 net_141:29 net_141:30 0.4154
41 net_141:30 net_141:31 0.1374
42 net_141:31 net_141:32 0.1713
43 net_141:32 net_141:33 0.2153
44 net_141:33 inst_76:A2 0.3119
45 net_141:24 net_141:34 0.4834
46 net_141:34 inst_155:A1 0.4589
47 net_141:22 net_141:35 0.0365
48 net_141:35 net_141:36 0.4409
49 net_141:36 net_141:37 0.4335
50 net_141:37 inst_141:A1 0.3158
51 net_141:19 net_141:38 0.4514
52 net_141:38 net_141:39 0.1489
53 net_141:39 net_141:40 0.3442
54 net_141:40 net_141:41 0.1815
55 net_141:41 net_141:42 0.2112
56 net_141:42 inst_50:A1 0.3238
57 net_141:13 net_141:43 0.0018
58 net_141:43 net_141:44 0.2665
59 net_141:44 net_141:45 0.4580
60 net_141:45 inst_15:A2 0.4392
61 net_141:30 net_141:46 0.3837
62 net_141:46 net_141:47 0.4308
63 net_141:47 net_141:48 0.4593
64 net_141:48 inst_136:A1 0.4578
65 net_141:42 net_141:49 0.1168
66 net_141:49 net_141:50 0.0632
67 net_141:50 inst_49:A2 0.3389
68 net_141:23 net_141:51 0.1492
69 net_141:51 inst_114:A1 0.1342
70 net_141:24 net_141:52 0.3077
71 net_141:52 net_141:53 0.0259
72 net_141:53 net_141:54 0.3818
73 net_141:54 net_141:55 0.2326
74 net_141:55 net_141:56 0.3632
75 net_141:56 inst_103:A1 0.2277
76 net_141:15 net_141:57 0.0233
77 net_141:57 net_141:58 0.1519
78 net_141:58 net_141:59 0.4158
79 net_141:59 net_141:60 0.0326
80 net_141:60 inst_33:A1 0.2788
81 net_141:30 net_141:61 0.2235
82 net_141:61 inst_31:A1 0.2530
83 net_141:6 net_141:62 0.3230
84 net_141:62 net_141:63 0.3040
85 net_141:63 inst_40:A1 0.3068
86 net_141:16 net_141:64 0.0586
87 net_141:64 inst_149:A1 0.2553
88 net_141:62 net_141:65 0.3670
89 net_141:65 net_141:66 0.3852
90 net_141:66 net_141:67 0.1467
91 net_141:67 net_141:68 0.2409
92 net_141:68 net_141:69 0.4071
93 net_141:69 inst_265:A1 0.2078
94 net_141:31 net_141:70 0.0491
95 net_141:70 inst_22:A2 0.0298
*END

*D_NET net_160 0.7771
*CONN
*I inst_138:ZN O
*I inst_68:A1 I
*CAP
1 inst_138:ZN 0.3430
2 net_160:1 0.2799
3 inst_68:A1 0.1542
*RES
2 inst_138:ZN net_160:1 0.1497
3 net_160:1 inst_68:A1 0.2415
*END

*D_NET net_240 0.8908
*CONN
*I inst_56:ZN O
*I inst_88:A3 I
*CAP
1 inst_56:ZN 0.2980
2 net_240:1 0.4120
3 net_240:2 0.1627
4 inst_88:A3 0.0181
*RES
2 inst_56:ZN net_240:1 0.3748
3 net_240:1 net_240:2 0.3179
4 net_240:2 inst_88:A3 0.1204
*END

*D_NET net_221 0.7131
*CONN
*I inst_67:ZN O
*I inst_87:A3 I
*CAP
1 inst_67:ZN 0.1679
2 net_221:1 0.3745
3 inst_87:A3 0.1708
*RES
2 inst_67:ZN net_221:1 0.0756
3 net_221:1 inst_87:A3 0.2634
*END

*D_NET net_83 1.6890
*CONN
*I inst_74:ZN O
*I inst_139:A2 I
*CAP
1 inst_74:ZN 0.4356
2 net_83:1 0.1695
3 net_83:2 0.1359
4 net_83:3 0.3553
5 net_83:4 0.1500
6 net_83:5 0.4264
7 inst_139:A2 0.0163
*RES
2 inst_74:ZN net_83:1 0.2331
3 net_83:1 net_83:2 0.4626
4 net_83:2 net_83:3 0.4224
5 net_83:3 net_83:4 0.1724
6 net_83:4 net_83:5 0.0056
7 net_83:5 inst_139:A2 0.0020
*END

*D_NET net_4 2.3293
*CONN
*P cnt511 I
*I inst_28:A1 I
*I inst_133:A1 I
*CAP
1 cnt511 0.2437
2 net_4:1 0.2690
3 net_4:2 0.0296
4 net_4:3 0.2418
5 inst_28:A1 0.1876