*SPEF "IEEE 1481-1998"
*DESIGN "changes"
*DATE "Tue Dec 02 20:46:02 2014"
*VENDOR "TAU 2015 Contest"
*PROGRAM "Benchmark Parasitic Generator"
*VERSION "0.0"
*DESIGN_FLOW "NETLIST_TYPE_VERILOG"
*DIVIDER /
*DELIMITER :
*BUS_DELIMITER [ ]
*T_UNIT 1 PS
*C_UNIT 1 FF
*R_UNIT 1 KOHM
*L_UNIT 1 UH

*D_NET TAUNET_248 5.2605
*CONN
*I TAUGATE_376:Z O
*I TAUGATE_248:A I
*I inst_107:A1 I
*I inst_14:A3 I
*I inst_120:A2 I
*CAP
1 TAUGATE_376:Z 0.2611
2 TAUNET_248:1 0.4098
3 TAUNET_248:2 0.5009
4 TAUNET_248:3 0.2843
5 inst_107:A1 0.2878
6 TAUNET_248:4 0.4685
7 TAUNET_248:5 0.3070
8 TAUNET_248:6 0.3583
9 TAUGATE_248:A 0.1395
10 TAUNET_248:7 0.4644
11 TAUNET_248:8 0.4559
12 TAUNET_248:9 0.4050
13 TAUNET_248:10 0.0154
14 inst_14:A3 0.1670
15 TAUNET_248:11 0.2909
16 TAUNET_248:12 0.3706
17 inst_120:A2 0.0740
*RES
2 TAUGATE_376:Z TAUNET_248:1 0.1659
3 TAUNET_248:1 TAUNET_248:2 0.2742
4 TAUNET_248:2 TAUNET_248:3 0.3494
5 TAUNET_248:3 inst_107:A1 0.1485
6 TAUNET_248:3 TAUNET_248:4 0.0646
7 TAUNET_248:4 TAUNET_248:5 0.0794
8 TAUNET_248:5 TAUNET_248:6 0.2161
9 TAUNET_248:6 TAUGATE_248:A 0.1614
10 TAUNET_248:4 TAUNET_248:7 0.1555
11 TAUNET_248:7 TAUNET_248:8 0.2440
12 TAUNET_248:8 TAUNET_248:9 0.0332
13 TAUNET_248:9 TAUNET_248:10 0.0406
14 TAUNET_248:10 inst_14:A3 0.2732
15 TAUNET_248:3 TAUNET_248:11 0.4871
16 TAUNET_248:11 TAUNET_248:12 0.4951
17 TAUNET_248:12 inst_120:A2 0.4125
*END

*D_NET net_106 0.8718
*CONN
*I inst_75:ZN O
*I inst_139:A1 I
*CAP
1 inst_75:ZN 0.1285
2 net_106:1 0.2926
3 inst_139:A1 0.4507
*RES
2 inst_75:ZN net_106:1 0.3356
3 net_106:1 inst_139:A1 0.3995
*END

*D_NET TAUNET_309 3.8036
*CONN
*I TAUGATE_366:Z O
*I TAUGATE_309:A I
*I inst_109:A2 I
*I inst_110:A2 I
*CAP
1 TAUGATE_366:Z 0.4708
2 TAUNET_309:1 0.3464
3 TAUNET_309:2 0.0305
4 TAUNET_309:3 0.2383
5 TAUNET_309:4 0.4020
6 inst_110:A2 0.2529
7 TAUNET_309:5 0.0716
8 TAUNET_309:6 0.2236
9 TAUNET_309:7 0.1922
10 TAUNET_309:8 0.2805
11 inst_109:A2 0.1322
12 TAUNET_309:9 0.2211
13 TAUNET_309:10 0.1955
14 TAUNET_309:11 0.1868
15 TAUNET_309:12 0.4889
16 TAUGATE_309:A 0.0703
*RES
2 TAUGATE_366:Z TAUNET_309:1 0.2665
3 TAUNET_309:1 TAUNET_309:2 0.4354
4 TAUNET_309:2 TAUNET_309:3 0.1977
5 TAUNET_309:3 TAUNET_309:4 0.0788
6 TAUNET_309:4 inst_110:A2 0.3276
7 TAUNET_309:4 TAUNET_309:5 0.1905
8 TAUNET_309:5 TAUNET_309:6 0.4017
9 TAUNET_309:6 TAUNET_309:7 0.4680
10 TAUNET_309:7 TAUNET_309:8 0.2976
11 TAUNET_309:8 inst_109:A2 0.2331
12 TAUNET_309:5 TAUNET_309:9 0.3298
13 TAUNET_309:9 TAUNET_309:10 0.4131
14 TAUNET_309:10 TAUNET_309:11 0.3310
15 TAUNET_309:11 TAUNET_309:12 0.2621
16 TAUNET_309:12 TAUGATE_309:A 0.4792
*END

*D_NET net_49 6.0863
*CONN
*I inst_196:ZN O
*I inst_200:A I
*I inst_198:A I
*I inst_154:A1 I
*I inst_201:A I
*I inst_197:A I
*CAP
1 inst_196:ZN 0.0717
2 net_49:1 0.4035
3 net_49:2 0.0219
4 net_49:3 0.0830
5 net_49:4 0.4539
6 inst_198:A 0.1250
7 net_49:5 0.3498
8 net_49:6 0.4055
9 net_49:7 0.4519
10 net_49:8 0.4658
11 net_49:9 0.3690
12 inst_200:A 0.4019
13 net_49:10 0.4734
14 net_49:11 0.0376
15 inst_154:A1 0.0972
16 net_49:12 0.3840
17 net_49:13 0.2434
18 inst_201:A 0.3726
19 net_49:14 0.4443
20 net_49:15 0.1288
21 inst_197:A 0.3022
*RES
2 inst_196:ZN net_49:1 0.3196
3 net_49:1 net_49:2 0.4976
4 net_49:2 net_49:3 0.3591
5 net_49:3 net_49:4 0.2780
6 net_49:4 inst_198:A 0.2022
7 net_49:1 net_49:5 0.0632
8 net_49:5 net_49:6 0.2503
9 net_49:6 net_49:7 0.4700
10 net_49:7 net_49:8 0.3789
11 net_49:8 net_49:9 0.3545
12 net_49:9 inst_200:A 0.1033
13 net_49:9 net_49:10 0.3594
14 net_49:10 net_49:11 0.0525
15 net_49:11 inst_154:A1 0.3248
16 net_49:6 net_49:12 0.2980
17 net_49:12 net_49:13 0.2454
18 net_49:13 inst_201:A 0.4670
19 net_49:5 net_49:14 0.1405
20 net_49:14 net_49:15 0.0668
21 net_49:15 inst_197:A 0.3699
*END

*D_NET net_217 1.5989
*CONN
*I inst_58:ZN O
*I inst_59:A2 I
*CAP
1 inst_58:ZN 0.4004
2 net_217:1 0.1341
3 net_217:2 0.3915
4 net_217:3 0.0282
5 net_217:4 0.3089
6 net_217:5 0.0253
7 inst_59:A2 0.3105
*RES
2 inst_58:ZN net_217:1 0.1881
3 net_217:1 net_217:2 0.2034
4 net_217:2 net_217:3 0.1592
5 net_217:3 net_217:4 0.3147
6 net_217:4 net_217:5 0.2761
7 net_217:5 inst_59:A2 0.3643
*END

