*SPEF "IEEE 1481-1998"
*DESIGN "s510"
*DATE "Tue Nov 25 16:55:09 2014"
*VENDOR "TAU 2015 Contest"
*PROGRAM "Benchmark Parasitic Generator"
*VERSION "0.0"
*DESIGN_FLOW "NETLIST_TYPE_VERILOG"
*DIVIDER /
*DELIMITER :
*BUS_DELIMITER [ ]
*T_UNIT 1 PS
*C_UNIT 1 FF
*R_UNIT 1 KOHM
*L_UNIT 1 UH

*D_NET net_47 0.2294
*CONN
*I inst_189:ZN O
*I inst_199:A I
*I inst_94:A2 I
*CAP
1 inst_189:ZN 0.0166
2 inst_199:A 0.0166
3 inst_94:A2 0.0166
4 net_47:1 0.0152
5 net_47:2 0.0546
6 net_47:3 0.0375
7 net_47:4 0.0162
8 net_47:5 0.0162
9 net_47:6 0.0152
10 net_47:7 0.0247
*RES
2 net_47:1 inst_94:A2 0.0050
3 net_47:2 net_47:1 0.0050
4 net_47:2 net_47:3 0.0027
5 net_47:3 net_47:4 0.0050
6 net_47:5 inst_199:A 0.0050
7 net_47:5 net_47:4 0.0010
8 net_47:6 inst_189:ZN 0.0050
9 net_47:7 net_47:2 0.0014
10 net_47:7 net_47:6 0.0050
*END

*D_NET net_176 0.2575
*CONN
*I inst_252:ZN O
*I inst_11:A1 I
*CAP
1 inst_252:ZN 0.0198
2 inst_11:A1 0.0166
3 net_176:1 0.0548
4 net_176:2 0.0548
5 net_176:3 0.0342
6 net_176:4 0.0342
7 net_176:5 0.0152
8 net_176:6 0.0281
*RES
2 inst_252:ZN net_176:6 0.0021
3 net_176:1 inst_11:A1 0.0050
4 net_176:2 net_176:1 0.0030
5 net_176:3 net_176:2 0.0050
6 net_176:4 net_176:3 0.0027
7 net_176:5 net_176:4 0.0050
8 net_176:6 net_176:5 0.0050
*END

*D_NET net_215 0.1113
*CONN
*I inst_11:ZN O
*I inst_89:A1 I
*CAP
1 inst_11:ZN 0.0166
2 inst_89:A1 0.0166
3 net_215:1 0.0390
4 net_215:2 0.0390
*RES
2 inst_11:ZN net_215:2 0.0050
3 net_215:1 inst_89:A1 0.0050
4 net_215:1 net_215:2 0.0025
*END

*D_NET net_137 0.7698
*CONN
*I inst_203:ZN O
*I inst_48:A1 I
*I inst_156:A1 I
*CAP
1 inst_203:ZN 0.0238
2 inst_48:A1 0.0166
3 inst_156:A1 0.0166
4 net_137:1 0.0312
5 net_137:2 0.0312
6 net_137:3 0.0155
7 net_137:4 0.0152
8 net_137:5 0.2759
9 net_137:6 0.2759
10 net_137:7 0.0340
11 net_137:8 0.0340
*RES
2 inst_203:ZN net_137:2 0.0050
3 inst_156:A1 net_137:8 0.0050
4 net_137:1 inst_48:A1 0.0050
5 net_137:2 net_137:1 0.0014
6 net_137:3 inst_203:ZN 0.0010
7 net_137:4 net_137:3 0.0050
8 net_137:5 net_137:4 0.0050
9 net_137:6 net_137:5 0.0149
10 net_137:7 net_137:6 0.0050
11 net_137:8 net_137:7 0.0035
*END

*D_NET net_132 0.2532
*CONN
*I inst_14:ZN O
*I inst_17:A1 I
*CAP
1 inst_14:ZN 0.0166
2 inst_17:A1 0.0166
3 net_132:1 0.0152
4 net_132:2 0.0948
5 net_132:3 0.0948
6 net_132:4 0.0152
*RES
2 inst_17:A1 net_132:4 0.0050
3 net_132:1 inst_14:ZN 0.0050
4 net_132:2 net_132:1 0.0050
5 net_132:3 net_132:2 0.0095
6 net_132:4 net_132:3 0.0050
*END

*D_NET net_54 0.1952
*CONN
*I inst_194:ZN O
*I inst_235:A I
*I inst_111:A2 I
*CAP
1 inst_194:ZN 0.0076
2 inst_235:A 0.0259
3 inst_111:A2 0.0201
4 net_54:1 0.0263
5 net_54:2 0.0263
6 net_54:3 0.0199
7 net_54:4 0.0199
8 net_54:5 0.0152
9 net_54:6 0.0342
*RES
2 inst_194:ZN inst_111:A2 0.0010
3 inst_111:A2 net_54:1 0.0050
4 net_54:2 net_54:1 0.0030
5 net_54:2 net_54:3 0.0050
6 net_54:3 net_54:4 0.0014
7 net_54:4 net_54:5 0.0050
8 net_54:5 net_54:6 0.0050
9 net_54:6 inst_235:A 0.0031
*END

*D_NET net_237 0.1369
*CONN
*I inst_256:QN O
*I inst_168:A I
*CAP
1 inst_168:A 0.0166
2 inst_256:QN 0.0166
3 net_237:1 0.0152
4 net_237:2 0.0264
5 net_237:3 0.0264
6 net_237:4 0.0179
7 net_237:5 0.0179
*RES
2 inst_256:QN net_237:5 0.0050
3 net_237:1 inst_168:A 0.0050
4 net_237:2 net_237:1 0.0050
5 net_237:3 net_237:2 0.0014
6 net_237:4 net_237:3 0.0050
7 net_237:4 net_237:5 0.0010
*END

*D_NET net_105 0.8122
*CONN
*I inst_25:ZN O
*I inst_241:A I
*I inst_75:A1 I
*I inst_96:A1 I
*CAP
1 inst_25:ZN 0.0166
2 inst_241:A 0.0166
3 inst_75:A1 0.0166
4 inst_96:A1 0.0166
5 net_105:1 0.0344
6 net_105:2 0.0344
7 net_105:3 0.0969
8 net_105:4 0.1046
9 net_105:5 0.1109
10 net_105:6 0.1119
11 net_105:7 0.0162
12 net_105:8 0.0649
13 net_105:9 0.0649
14 net_105:10 0.0150
15 net_105:11 0.0150
16 net_105:12 0.0307
17 net_105:13 0.0307
18 net_105:14 0.0153
*RES
2 net_105:1 inst_241:A 0.0050
3 net_105:2 net_105:1 0.0025
4 net_105:3 net_105:2 0.0050
5 net_105:4 net_105:3 0.0102
6 net_105:4 net_105:5 0.0050
7 net_105:6 inst_75:A1 0.0050
8 net_105:6 net_105:5 0.0110
9 net_105:7 net_105:6 0.0010
10 net_105:7 net_105:8 0.0050
11 net_105:8 net_105:9 0.0061
12 net_105:9 net_105:10 0.0050
13 net_105:11 inst_96:A1 0.0050
14 net_105:11 net_105:10 0.0010
15 net_105:12 inst_25:ZN 0.0050
16 net_105:13 net_105:12 0.0015
17 net_105:14 net_105:4 0.0010
18 net_105:14 net_105:13 0.0050
*END

*D_NET vsync 0.7003
*CONN
*I inst_89:ZN O
*P vsync O
*CAP
1 vsync 0.0153
2 inst_89:ZN 0.2338
3 vsync:1 0.2421
4 vsync:2 0.0152
5 vsync:3 0.0086
6 vsync:4 0.0086
7 vsync:5 0.0641
8 vsync:6 0.0641
9 vsync:7 0.0128
10 vsync:8 0.0128
11 vsync:9 0.0229
*RES
2 inst_89:ZN vsync:1 0.0268
3 vsync:2 vsync:1 0.0050
4 vsync:3 vsync:2 0.0050
5 vsync:3 vsync:4 0.0010
6 vsync:5 vsync:4 0.0050
7 vsync:5 vsync:6 0.0020
8 vsync:7 vsync:6 0.0050
9 vsync:7 vsync:8 0.0010
10 vsync:9 vsync 0.0011
11 vsync:9 vsync:8 0.0050
*END

*D_NET net_129 0.5046
*CONN
*I inst_116:ZN O
*I inst_132:A1 I
*I inst_16:A3 I
*CAP
1 inst_116:ZN 0.1274
2 inst_132:A1 0.0166
3 inst_16:A3 0.0166
4 net_129:1 0.0152
5 net_129:2 0.0365
6 net_129:3 0.0365
7 net_129:4 0.0152
8 net_129:5 0.0341
9 net_129:6 0.1100
10 net_129:7 0.0152
11 net_129:8 0.0331
12 net_129:9 0.0331
13 net_129:10 0.0152
*RES
2 inst_116:ZN net_129:6 0.0134
3 inst_132:A1 net_129:10 0.0050
4 net_129:1 inst_16:A3 0.0050
5 net_129:2 net_129:1 0.0050
6 net_129:2 net_129:3 0.0027
7 net_129:4 net_129:3 0.0050
8 net_129:5 inst_116:ZN 0.0052
9 net_129:5 net_129:4 0.0050
10 net_129:7 net_129:6 0.0050
11 net_129:8 net_129:7 0.0050
12 net_129:8 net_129:9 0.0041
13 net_129:10 net_129:9 0.0050
*END

*D_NET net_119 0.0760
*CONN
*I inst_249:ZN O
*I inst_11:A3 I
*CAP
1 inst_249:ZN 0.0219
2 inst_11:A3 0.0161
3 net_119:1 0.0380
*RES
2 inst_249:ZN net_119:1 0.0031
3 inst_11:A3 net_119:1 0.0015
*END

*D_NET net_98 2.0079
*CONN
*I inst_20:ZN O
*I inst_194:A I
*I inst_107:A1 I
*I inst_120:A2 I
*I inst_14:A3 I
*CAP
1 inst_20:ZN 0.0166
2 inst_194:A 0.0166
3 inst_107:A1 0.0166
4 inst_120:A2 0.0166
5 inst_14:A3 0.0166
6 net_98:1 0.0152
7 net_98:2 0.0613
8 net_98:3 0.0740
9 net_98:4 0.0691
10 net_98:5 0.0898
11 net_98:6 0.4777
12 net_98:7 0.4777
13 net_98:8 0.0177
14 net_98:9 0.0090
15 net_98:10 0.0090
16 net_98:11 0.0418
17 net_98:12 0.1801
18 net_98:13 0.0210
19 net_98:14 0.0210
20 net_98:15 0.0080
21 net_98:16 0.0080
22 net_98:17 0.0207
23 net_98:18 0.0182
24 net_98:19 0.0182
25 net_98:20 0.0203
26 net_98:21 0.0175
27 net_98:22 0.0488
28 net_98:23 0.0488
29 net_98:24 0.1520
*RES
2 net_98:1 inst_194:A 0.0050
3 net_98:2 net_98:1 0.0050
4 net_98:3 net_98:2 0.0034
5 net_98:4 net_98:3 0.0050
6 net_98:4 net_98:5 0.0019
7 net_98:5 net_98:17 0.0010
8 net_98:6 net_98:5 0.0030
9 net_98:7 net_98:6 0.0185
10 net_98:8 net_98:7 0.0030
11 net_98:9 net_98:8 0.0050
12 net_98:10 net_98:9 0.0010
13 net_98:11 net_98:10 0.0050
14 net_98:11 net_98:12 0.0025
15 net_98:12 inst_107:A1 0.0050
16 net_98:12 net_98:24 0.0130
17 net_98:13 inst_120:A2 0.0050
18 net_98:14 net_98:13 0.0010
19 net_98:15 net_98:14 0.0050
20 net_98:15 net_98:16 0.0010
21 net_98:17 net_98:16 0.0050
22 net_98:18 inst_14:A3 0.0050
23 net_98:19 net_98:18 0.0010
24 net_98:20 net_98:3 0.0010
25 net_98:20 net_98:19 0.0050
26 net_98:21 inst_20:ZN 0.0050
27 net_98:22 net_98:21 0.0010
28 net_98:23 net_98:22 0.0050
29 net_98:24 net_98:23 0.0010
*END

*D_NET net_12 0.0308
*CONN
*I inst_228:ZN O
*I inst_30:A2 I
*CAP
1 inst_228:ZN 0.0154
2 inst_30:A2 0.0154
*RES
2 inst_30:A2 inst_228:ZN 0.0021
*END

*D_NET net_151 0.2371
*CONN
*I inst_135:ZN O
*I inst_66:A1 I
*CAP
1 inst_135:ZN 0.0166
2 inst_66:A1 0.0166
3 net_151:1 0.0295
4 net_151:2 0.0295
5 net_151:3 0.0490
6 net_151:4 0.0490
7 net_151:5 0.0235
8 net_151:6 0.0235
*RES
2 inst_135:ZN net_151:6 0.0050
3 net_151:1 inst_66:A1 0.0050
4 net_151:2 net_151:1 0.0020
5 net_151:3 net_151:2 0.0050
6 net_151:3 net_151:4 0.0027
7 net_151:5 net_151:4 0.0050
8 net_151:6 net_151:5 0.0015
*END

*D_NET net_53 0.6208
*CONN
*I inst_62:ZN O
*I inst_116:A2 I
*CAP
1 inst_62:ZN 0.0166
2 inst_116:A2 0.0157
3 net_53:1 0.0171
4 net_53:2 0.0171
5 net_53:3 0.2375
6 net_53:4 0.2375
7 net_53:5 0.0277
8 net_53:6 0.0277
9 net_53:7 0.0240
*RES
2 net_53:1 inst_62:ZN 0.0050
3 net_53:2 net_53:1 0.0010
4 net_53:3 net_53:2 0.0050
5 net_53:3 net_53:4 0.0176
6 net_53:5 net_53:4 0.0050
7 net_53:6 net_53:5 0.0015
8 net_53:7 inst_116:A2 0.0021
9 net_53:7 net_53:6 0.0050
*END

*D_NET net_93 0.0152
*CONN
*I inst_243:ZN O
*I inst_135:A2 I
*CAP
1 inst_243:ZN 0.0076
2 inst_135:A2 0.0076
*RES
2 inst_243:ZN inst_135:A2 0.0010
*END

*D_NET net_210 0.2835
*CONN
*I inst_57:ZN O
*I inst_88:A2 I
*CAP
1 inst_57:ZN 0.0076
2 inst_88:A2 0.0077
3 net_210:1 0.0159
4 net_210:2 0.0152
5 net_210:3 0.0571
6 net_210:4 0.0571
7 net_210:5 0.0534
8 net_210:6 0.0534
9 net_210:7 0.0160
*RES
2 inst_57:ZN net_210:1 0.0010
3 net_210:2 net_210:1 0.0050
4 net_210:3 net_210:2 0.0050
5 net_210:3 net_210:4 0.0041
6 net_210:5 net_210:4 0.0050
7 net_210:5 net_210:6 0.0030
8 net_210:7 inst_88:A2 0.0010
9 net_210:7 net_210:6 0.0050
*END

*D_NET net_168 0.2616
*CONN
*I inst_201:ZN O
*I inst_7:A1 I
*I inst_78:A1 I
*CAP
1 inst_201:ZN 0.0166
2 inst_7:A1 0.0166
3 inst_78:A1 0.0166
4 net_168:1 0.0213
5 net_168:2 0.0706
6 net_168:3 0.0706
7 net_168:4 0.0152
8 net_168:5 0.0178
9 net_168:6 0.0163
*RES
2 net_168:1 inst_7:A1 0.0050
3 net_168:1 net_168:6 0.0010
4 net_168:1 net_168:2 0.0050
5 net_168:3 net_168:2 0.0061
6 net_168:3 net_168:4 0.0050
7 net_168:4 inst_78:A1 0.0050
8 net_168:5 inst_201:ZN 0.0050
9 net_168:6 net_168:5 0.0010
*END

*D_NET net_259 0.1691
*CONN
*I inst_260:QN O
*I inst_165:A I
*CAP
1 inst_165:A 0.0177
2 inst_260:QN 0.0166
3 net_259:1 0.0157
4 net_259:2 0.0179
5 net_259:3 0.0387
6 net_259:4 0.0364
7 net_259:5 0.0260
*RES
2 net_259:1 inst_260:QN 0.0050
3 net_259:2 net_259:1 0.0010
4 net_259:2 net_259:3 0.0010
5 net_259:4 net_259:3 0.0020
6 net_259:5 inst_165:A 0.0021
7 net_259:5 net_259:4 0.0050
*END

*D_NET net_269 1.3264
*CONN
*I inst_276:Z O
*I inst_277:A I
*CAP
1 inst_276:Z 0.4685
2 net_269:1 0.3583
3 net_269:2 0.1395
4 net_269:3 0.0646
5 net_269:4 0.0794
6 inst_277:A 0.2161
*RES
2 inst_276:Z net_269:1 0.1614
3 net_269:1 net_269:2 0.3312
4 net_269:2 net_269:3 0.3755
5 net_269:3 net_269:4 0.4644
6 net_269:4 inst_277:A 0.4559
*END

*D_NET net_127 3.1507
*CONN
*I inst_109:ZN O
*I inst_239:A I
*I inst_5:A2 I
*I inst_131:A1 I
*I inst_134:A1 I
*CAP
1 inst_109:ZN 0.0321
2 inst_239:A 0.0166
3 inst_5:A2 0.0166
4 inst_131:A1 0.0166
5 inst_134:A1 0.0166
6 net_127:1 0.0380
7 net_127:2 0.0494
8 net_127:3 0.0189
9 net_127:4 0.0529
10 net_127:5 0.0491
11 net_127:6 0.0556
12 net_127:7 0.0556
13 net_127:8 0.0238
14 net_127:9 0.0152
15 net_127:10 0.1581
16 net_127:11 0.1581
17 net_127:12 0.1233
18 net_127:13 0.1317
19 net_127:14 0.0261
20 net_127:15 0.0413
21 net_127:16 0.0413
22 net_127:17 0.1921
23 net_127:18 0.1921
24 net_127:19 0.0314
25 net_127:20 0.0314
26 net_127:21 0.0428
27 net_127:22 0.0390
28 net_127:23 0.0330
29 net_127:24 0.0330
30 net_127:25 0.0449
31 net_127:26 0.1401
32 net_127:27 0.1028
33 net_127:28 0.1048
34 net_127:29 0.1010
35 net_127:30 0.0244
36 net_127:31 0.0244
37 net_127:32 0.4383
38 net_127:33 0.4383
*RES
2 inst_109:ZN net_127:8 0.0021
3 inst_109:ZN net_127:9 0.0050
4 net_127:1 inst_239:A 0.0050
5 net_127:1 net_127:2 0.0025
6 net_127:2 net_127:3 0.0010
7 net_127:3 net_127:4 0.0050
8 net_127:5 net_127:4 0.0061
9 net_127:5 net_127:6 0.0050
10 net_127:6 net_127:7 0.0060
11 net_127:7 net_127:8 0.0050
12 net_127:9 net_127:10 0.0050
13 net_127:11 net_127:10 0.0128
14 net_127:11 net_127:12 0.0050
15 net_127:12 net_127:13 0.0055
16 net_127:14 net_127:13 0.0010
17 net_127:14 net_127:15 0.0030
18 net_127:16 net_127:15 0.0013
19 net_127:16 net_127:17 0.0030
20 net_127:17 net_127:18 0.0055
21 net_127:18 net_127:19 0.0050
22 net_127:20 net_127:19 0.0022
23 net_127:20 net_127:21 0.0050
24 net_127:21 net_127:22 0.0020
25 net_127:22 inst_131:A1 0.0050
26 net_127:23 inst_5:A2 0.0050
27 net_127:23 net_127:24 0.0020
28 net_127:25 net_127:24 0.0050
29 net_127:26 net_127:25 0.0036
30 net_127:27 net_127:2 0.0050
31 net_127:27 net_127:26 0.0120
32 net_127:28 inst_134:A1 0.0050
33 net_127:29 net_127:28 0.0090
34 net_127:30 net_127:29 0.0050
35 net_127:30 net_127:31 0.0019
36 net_127:32 net_127:31 0.0050
37 net_127:33 net_127:26 0.0050
38 net_127:33 net_127:32 0.0118
*END

*D_NET pclr 0.5055
*CONN
*I inst_157:ZN O
*P pclr O
*CAP
1 pclr 0.0153
2 inst_157:ZN 0.0166
3 pclr:1 0.0216
4 pclr:2 0.0216
5 pclr:3 0.1894
6 pclr:4 0.1961
7 pclr:5 0.0219
8 pclr:6 0.0229
*RES
2 pclr:1 inst_157:ZN 0.0050
3 pclr:2 pclr:1 0.0015
4 pclr:3 pclr:2 0.0050
5 pclr:3 pclr:4 0.0176
6 pclr:5 pclr:4 0.0010
7 pclr:6 pclr 0.0011
8 pclr:6 pclr:5 0.0050
*END

*D_NET net_76 0.4674
*CONN
*I inst_199:ZN O
*I inst_209:A I
*I inst_44:A1 I
*CAP
1 inst_199:ZN 0.0384
2 inst_209:A 0.0208
3 inst_44:A1 0.0166
4 net_76:1 0.0344
5 net_76:2 0.1105
6 net_76:3 0.0875
7 net_76:4 0.0341
8 net_76:5 0.0341
9 net_76:6 0.0152
10 net_76:7 0.0292
11 net_76:8 0.0467
*RES
2 inst_199:ZN net_76:8 0.0052
3 net_76:1 inst_44:A1 0.0050
4 net_76:2 net_76:1 0.0025
5 net_76:3 net_76:2 0.0070
6 net_76:3 net_76:4 0.0050
7 net_76:4 net_76:5 0.0041
8 net_76:5 net_76:6 0.0050
9 net_76:6 net_76:7 0.0050
10 net_76:7 inst_209:A 0.0031
11 net_76:8 net_76:2 0.0050
*END

*D_NET net_101 0.1191
*CONN
*I inst_121:ZN O
*I inst_143:A2 I
*CAP
1 inst_121:ZN 0.0267
2 inst_143:A2 0.0166
3 net_101:1 0.0204
4 net_101:2 0.0204
5 net_101:3 0.0350
*RES
2 net_101:1 inst_143:A2 0.0050
3 net_101:2 net_101:1 0.0010
4 net_101:3 inst_121:ZN 0.0031
5 net_101:3 net_101:2 0.0050
*END

*D_NET net_187 0.3426
*CONN
*I inst_261:ZN O
*I inst_56:A2 I
*CAP
1 inst_261:ZN 0.0166
2 inst_56:A2 0.0166
3 net_187:1 0.0239
4 net_187:2 0.0239
5 net_187:3 0.1111
6 net_187:4 0.1111
7 net_187:5 0.0197
8 net_187:6 0.0197
*RES
2 inst_56:A2 net_187:6 0.0050
3 net_187:1 inst_261:ZN 0.0050
4 net_187:1 net_187:2 0.0020
5 net_187:3 net_187:2 0.0050
6 net_187:3 net_187:4 0.0109
7 net_187:5 net_187:4 0.0050
8 net_187:5 net_187:6 0.0010
*END

*D_NET net_111 2.0550
*CONN
*I inst_209:ZN O
*I inst_244:A I
*I inst_120:A1 I
*I inst_45:A1 I
*I inst_127:A1 I
*I inst_76:A3 I
*CAP
1 inst_209:ZN 0.0200
2 inst_244:A 0.0072
3 inst_120:A1 0.0166
4 inst_45:A1 0.0166
5 inst_127:A1 0.0166
6 inst_76:A3 0.0166
7 net_111:1 0.0155
8 net_111:2 0.1820
9 net_111:3 0.0618
10 net_111:4 0.0326
11 net_111:5 0.0326
12 net_111:6 0.0532
13 net_111:7 0.0532
14 net_111:8 0.0495
15 net_111:9 0.0495
16 net_111:10 0.0936
17 net_111:11 0.0936
18 net_111:12 0.0393
19 net_111:13 0.0801
20 net_111:14 0.0684
21 net_111:15 0.1345
22 net_111:16 0.1345
23 net_111:17 0.0263
24 net_111:18 0.0263
25 net_111:19 0.0167
26 net_111:20 0.0167
27 net_111:21 0.0321
28 net_111:22 0.1219
29 net_111:23 0.1219
30 net_111:24 0.1355
31 net_111:25 0.0152
32 net_111:26 0.0395
33 net_111:27 0.0395
34 net_111:28 0.0223
35 net_111:29 0.0223
36 net_111:30 0.0321
37 net_111:31 0.0283
38 net_111:32 0.0299
39 net_111:33 0.0299
40 net_111:34 0.0313
*RES
2 inst_209:ZN net_111:31 0.0021
3 net_111:1 inst_244:A 0.0010
4 net_111:2 net_111:1 0.0050
5 net_111:2 net_111:3 0.0060
6 net_111:4 net_111:3 0.0050
7 net_111:5 net_111:4 0.0031
8 net_111:6 net_111:5 0.0050
9 net_111:6 net_111:7 0.0021
10 net_111:8 net_111:7 0.0050
11 net_111:9 net_111:8 0.0040
12 net_111:10 net_111:9 0.0050
13 net_111:10 net_111:11 0.0025
14 net_111:12 net_111:11 0.0050
15 net_111:13 net_111:12 0.0030
16 net_111:13 net_111:25 0.0050
17 net_111:14 net_111:13 0.0060
18 net_111:14 net_111:15 0.0050
19 net_111:16 net_111:15 0.0027
20 net_111:16 net_111:17 0.0050
21 net_111:18 net_111:17 0.0010
22 net_111:18 net_111:19 0.0050
23 net_111:20 inst_76:A3 0.0050
24 net_111:20 net_111:19 0.0010
25 net_111:21 inst_120:A1 0.0050
26 net_111:22 net_111:21 0.0050
27 net_111:22 net_111:23 0.0095
28 net_111:24 net_111:2 0.0135
29 net_111:24 net_111:23 0.0050
30 net_111:25 inst_45:A1 0.0050
31 net_111:26 inst_127:A1 0.0050
32 net_111:26 net_111:27 0.0035
33 net_111:28 net_111:27 0.0050
34 net_111:29 net_111:28 0.0014
35 net_111:30 net_111:21 0.0030
36 net_111:30 net_111:29 0.0050
37 net_111:32 net_111:31 0.0050
38 net_111:33 net_111:32 0.0020
39 net_111:34 net_111:14 0.0022
40 net_111:34 net_111:33 0.0050
*END

*D_NET net_264 2.0398
*CONN
*I inst_271:Z O
*I inst_272:A I
*I inst_278:A I
*CAP
1 inst_271:Z 0.4316
2 net_264:1 0.4734
3 net_264:2 0.0376
4 inst_272:A 0.0972
5 net_264:3 0.3840
6 net_264:4 0.2434
7 inst_278:A 0.3726
*RES
2 inst_271:Z net_264:1 0.3594
3 net_264:1 net_264:2 0.0525
4 net_264:2 inst_272:A 0.3248
5 net_264:2 net_264:3 0.2980
6 net_264:3 net_264:4 0.2454
7 net_264:4 inst_278:A 0.4670
*END

*D_NET net_90 0.3952
*CONN
*I inst_110:ZN O
*I inst_4:A2 I
*I inst_71:A3 I
*CAP
1 inst_110:ZN 0.0223
2 inst_4:A2 0.0166
3 inst_71:A3 0.0166
4 net_90:1 0.0554
5 net_90:2 0.0834
6 net_90:3 0.0356
7 net_90:4 0.0502
8 net_90:5 0.0502
9 net_90:6 0.0171
10 net_90:7 0.0171
11 net_90:8 0.0306
*RES
2 inst_110:ZN net_90:8 0.0031
3 net_90:1 inst_4:A2 0.0050
4 net_90:1 net_90:2 0.0050
5 net_90:2 net_90:3 0.0045
6 net_90:3 net_90:4 0.0050
7 net_90:4 net_90:5 0.0061
8 net_90:5 net_90:6 0.0050
9 net_90:6 net_90:7 0.0010
10 net_90:7 inst_71:A3 0.0050
11 net_90:8 net_90:2 0.0050
*END

*D_NET net_225 3.4621
*CONN
*I inst_94:ZN O
*I inst_245:A I
*I inst_48:A2 I
*I inst_134:A2 I
*I inst_262:A2 I
*I inst_70:A2 I
*CAP
1 inst_94:ZN 0.0166
2 inst_245:A 0.0166
3 inst_48:A2 0.0078
4 inst_134:A2 0.0166
5 inst_262:A2 0.0166
6 inst_70:A2 0.0166
7 net_225:1 0.0152
8 net_225:2 0.0086
9 net_225:3 0.0086
10 net_225:4 0.1657
11 net_225:5 0.1857
12 net_225:6 0.0466
13 net_225:7 0.1174
14 net_225:8 0.1174
15 net_225:9 0.0721
16 net_225:10 0.0721
17 net_225:11 0.0083
18 net_225:12 0.0083
19 net_225:13 0.0230
20 net_225:14 0.0754
21 net_225:15 0.0162
22 net_225:16 0.0445
23 net_225:17 0.0445
24 net_225:18 0.1460
25 net_225:19 0.1460
26 net_225:20 0.0709
27 net_225:21 0.0709
28 net_225:22 0.0527
29 net_225:23 0.0527
30 net_225:24 0.1790
31 net_225:25 0.1790
32 net_225:26 0.0561
33 net_225:27 0.0561
34 net_225:28 0.0638
35 net_225:29 0.0168
36 net_225:30 0.0168
37 net_225:31 0.0315
38 net_225:32 0.0315
39 net_225:33 0.0165
40 net_225:34 0.0165
41 net_225:35 0.0113
42 net_225:36 0.0113
43 net_225:37 0.0503
44 net_225:38 0.1348
45 net_225:39 0.3748
46 net_225:40 0.3748
47 net_225:41 0.0267
48 net_225:42 0.0165
49 net_225:43 0.0165
50 net_225:44 0.0186
51 net_225:45 0.0186
52 net_225:46 0.0845
*RES
2 inst_48:A2 net_225:15 0.0010
3 net_225:1 inst_245:A 0.0050
4 net_225:2 net_225:1 0.0050
5 net_225:3 net_225:2 0.0010
6 net_225:4 net_225:3 0.0050
7 net_225:4 net_225:41 0.0010
8 net_225:5 net_225:4 0.0040
9 net_225:5 net_225:32 0.0050
10 net_225:6 net_225:5 0.0013
11 net_225:6 net_225:7 0.0030
12 net_225:8 net_225:7 0.0042
13 net_225:8 net_225:9 0.0030
14 net_225:10 net_225:9 0.0023
15 net_225:10 net_225:11 0.0050
16 net_225:12 net_225:11 0.0010
17 net_225:12 net_225:13 0.0050
18 net_225:14 inst_262:A2 0.0050
19 net_225:14 net_225:13 0.0015
20 net_225:16 net_225:15 0.0050
21 net_225:16 net_225:17 0.0030
22 net_225:18 net_225:17 0.0050
23 net_225:18 net_225:19 0.0122
24 net_225:20 net_225:19 0.0050
25 net_225:20 net_225:21 0.0090
26 net_225:22 net_225:21 0.0050
27 net_225:22 net_225:23 0.0044
28 net_225:24 net_225:23 0.0050
29 net_225:24 net_225:25 0.0061
30 net_225:26 net_225:25 0.0050
31 net_225:27 net_225:26 0.0051
32 net_225:28 net_225:14 0.0045
33 net_225:28 net_225:27 0.0050
34 net_225:29 inst_134:A2 0.0050
35 net_225:29 net_225:30 0.0010
36 net_225:31 net_225:30 0.0050
37 net_225:32 net_225:31 0.0015
38 net_225:33 inst_70:A2 0.0050
39 net_225:34 net_225:33 0.0010
40 net_225:35 net_225:34 0.0050
41 net_225:36 net_225:35 0.0010
42 net_225:37 net_225:36 0.0050
43 net_225:38 net_225:37 0.0019
44 net_225:38 net_225:39 0.0030
45 net_225:39 net_225:40 0.0134
46 net_225:40 net_225:41 0.0030
47 net_225:42 inst_94:ZN 0.0050
48 net_225:42 net_225:43 0.0010
49 net_225:44 net_225:43 0.0050
50 net_225:45 net_225:44 0.0010
51 net_225:46 net_225:38 0.0023
52 net_225:46 net_225:45 0.0050
*END

*D_NET net_283 1.5589
*CONN
*I inst_290:Z O
*I inst_255:CK I
*CAP
1 inst_290:Z 0.1376
2 net_283:1 0.1288
3 net_283:2 0.3022
4 net_283:3 0.1405
5 net_283:4 0.0668
6 net_283:5 0.3699
7 inst_255:CK 0.4131
*RES
2 inst_290:Z net_283:1 0.4004
3 net_283:1 net_283:2 0.4814
4 net_283:2 net_283:3 0.1341
5 net_283:3 net_283:4 0.3915
6 net_283:4 net_283:5 0.0282
7 net_283:5 inst_255:CK 0.3089
*END

*D_NET net_100 0.7115
*CONN
*I inst_190:ZN O
*I inst_37:A1 I
*I inst_121:A2 I
*I inst_146:A1 I
*CAP
1 inst_190:ZN 0.0234
2 inst_37:A1 0.0166
3 inst_121:A2 0.0166
4 inst_146:A1 0.0166
5 net_100:1 0.1631
6 net_100:2 0.1594
7 net_100:3 0.0670
8 net_100:4 0.0670
9 net_100:5 0.0768
10 net_100:6 0.0317
11 net_100:7 0.0730
*RES
2 inst_190:ZN net_100:6 0.0031
3 net_100:1 inst_37:A1 0.0050
4 net_100:1 net_100:2 0.0170
5 net_100:2 inst_146:A1 0.0050
6 net_100:3 net_100:2 0.0050
7 net_100:4 net_100:3 0.0061
8 net_100:5 inst_121:A2 0.0050
9 net_100:5 net_100:4 0.0050
10 net_100:7 net_100:5 0.0045
11 net_100:7 net_100:6 0.0050
*END

*D_NET net_85 0.3709
*CONN
*I inst_41:ZN O
*I inst_261:A4 I
*CAP
1 inst_41:ZN 0.0166
2 inst_261:A4 0.0166
3 net_85:1 0.0152
4 net_85:2 0.1536
5 net_85:3 0.1536
6 net_85:4 0.0152
*RES
2 inst_261:A4 net_85:4 0.0050
3 net_85:1 inst_41:ZN 0.0050
4 net_85:2 net_85:1 0.0050
5 net_85:2 net_85:3 0.0129
6 net_85:4 net_85:3 0.0050
*END

*D_NET net_263 2.1119
*CONN
*I inst_270:Z O
*I inst_271:A I
*CAP
1 inst_270:Z 0.3877
2 net_263:1 0.4950
3 net_263:2 0.0413
4 net_263:3 0.4651
5 net_263:4 0.4065
6 inst_271:A 0.3164
*RES
2 inst_270:Z net_263:1 0.3513
3 net_263:1 net_263:2 0.1165
4 net_263:2 net_263:3 0.0986
5 net_263:3 net_263:4 0.2243
6 net_263:4 inst_271:A 0.1286
*END

*D_NET net_252 0.1001
*CONN
*I inst_96:ZN O
*I inst_80:A3 I
*CAP
1 inst_96:ZN 0.0143
2 inst_80:A3 0.0166
3 net_252:1 0.0268
4 net_252:2 0.0212
5 net_252:3 0.0212
*RES
2 inst_96:ZN net_252:1 0.0021
3 inst_80:A3 net_252:3 0.0050
4 net_252:2 net_252:1 0.0050
5 net_252:2 net_252:3 0.0015
*END

*D_NET net_124 0.2088
*CONN
*I inst_129:ZN O
*I inst_71:A1 I
*CAP
1 inst_129:ZN 0.0072
2 inst_71:A1 0.0166
3 net_124:1 0.0326
4 net_124:2 0.0326
5 net_124:3 0.0310
6 net_124:4 0.0310
7 net_124:5 0.0211
8 net_124:6 0.0211
9 net_124:7 0.0155
*RES
2 inst_129:ZN net_124:7 0.0010
3 net_124:1 inst_71:A1 0.0050
4 net_124:2 net_124:1 0.0025
5 net_124:3 net_124:2 0.0050
6 net_124:4 net_124:3 0.0020
7 net_124:5 net_124:4 0.0050
8 net_124:6 net_124:5 0.0010
9 net_124:7 net_124:6 0.0050
*END

*D_NET net_240 0.7131
*CONN
*I inst_56:ZN O
*I inst_88:A3 I
*CAP
1 inst_56:ZN 0.0166
2 inst_88:A3 0.0166
3 net_240:1 0.0289
4 net_240:2 0.0289
5 net_240:3 0.0750
6 net_240:4 0.0750
7 net_240:5 0.1741
8 net_240:6 0.1741
9 net_240:7 0.0409
10 net_240:8 0.0409
11 net_240:9 0.0211
12 net_240:10 0.0211
*RES
2 inst_88:A3 net_240:10 0.0050
3 net_240:1 inst_56:ZN 0.0050
4 net_240:2 net_240:1 0.0015
5 net_240:3 net_240:2 0.0050
6 net_240:4 net_240:3 0.0062
7 net_240:5 net_240:4 0.0050
8 net_240:6 net_240:5 0.0042
9 net_240:7 net_240:6 0.0050
10 net_240:7 net_240:8 0.0028
11 net_240:9 net_240:8 0.0050
12 net_240:10 net_240:9 0.0010
*END

*D_NET net_160 0.1198
*CONN
*I inst_138:ZN O
*I inst_68:A1 I
*CAP
1 inst_138:ZN 0.0166
2 inst_68:A1 0.0166
3 net_160:1 0.0433
4 net_160:2 0.0433
*RES
2 inst_68:A1 net_160:2 0.0050
3 net_160:1 inst_138:ZN 0.0050
4 net_160:1 net_160:2 0.0045
*END

*D_NET net_221 0.2988
*CONN
*I inst_67:ZN O
*I inst_87:A3 I
*CAP
1 inst_67:ZN 0.0166
2 inst_87:A3 0.0166
3 net_221:1 0.0182
4 net_221:2 0.0182
5 net_221:3 0.0916
6 net_221:4 0.0916
7 net_221:5 0.0230
8 net_221:6 0.0230
*RES
2 inst_87:A3 net_221:6 0.0050
3 net_221:1 inst_67:ZN 0.0050
4 net_221:1 net_221:2 0.0010
5 net_221:3 net_221:2 0.0050
6 net_221:4 net_221:3 0.0095
7 net_221:5 net_221:4 0.0050
8 net_221:5 net_221:6 0.0015
*END

*D_NET net_115 0.2243
*CONN
*I inst_211:ZN O
*I inst_214:A I
*I inst_67:A2 I
*CAP
1 inst_211:ZN 0.0166
2 inst_214:A 0.0166
3 inst_67:A2 0.0166
4 net_115:1 0.0601
5 net_115:2 0.0234
6 net_115:3 0.0233
7 net_115:4 0.0211
8 net_115:5 0.0466
*RES
2 net_115:1 inst_67:A2 0.0050
3 net_115:1 net_115:2 0.0015
4 net_115:2 net_115:3 0.0010
5 net_115:3 net_115:4 0.0015
6 net_115:4 inst_214:A 0.0050
7 net_115:5 inst_211:ZN 0.0050
8 net_115:5 net_115:1 0.0050
*END

*D_NET net_4 0.0833
*CONN
*I inst_224:ZN O
*I inst_28:A1 I
*CAP
1 inst_224:ZN 0.0417
2 inst_28:A1 0.0417
*RES
2 inst_224:ZN inst_28:A1 0.0052
*END

*D_NET net_17 0.2028
*CONN
*I inst_28:ZN O
*I inst_52:A1 I
*CAP
1 inst_28:ZN 0.0313
2 inst_52:A1 0.0076
3 net_17:1 0.0396
4 net_17:2 0.0153
5 net_17:3 0.0153
6 net_17:4 0.0313
7 net_17:5 0.0313
8 net_17:6 0.0152
9 net_17:7 0.0159
*RES
2 inst_52:A1 net_17:7 0.0010
3 net_17:1 inst_28:ZN 0.0041
4 net_17:2 net_17:1 0.0050
5 net_17:2 net_17:3 0.0010
6 net_17:4 net_17:3 0.0050
7 net_17:5 net_17:4 0.0020
8 net_17:6 net_17:5 0.0050
9 net_17:7 net_17:6 0.0050
*END

*D_NET net_164 0.4332
*CONN
*I inst_53:ZN O
*I inst_18:A1 I
*CAP
1 inst_53:ZN 0.0166
2 inst_18:A1 0.0166
3 net_164:1 0.0448
4 net_164:2 0.0486
5 net_164:3 0.1228
6 net_164:4 0.1228
7 net_164:5 0.0305
8 net_164:6 0.0305
*RES
2 inst_18:A1 net_164:6 0.0050
3 net_164:1 inst_53:ZN 0.0050
4 net_164:2 net_164:1 0.0055
5 net_164:3 net_164:2 0.0050
6 net_164:3 net_164:4 0.0122
7 net_164:5 net_164:4 0.0050
8 net_164:6 net_164:5 0.0030
*END

*D_NET cnt13 2.1464
*CONN
*P cnt13 I
*I inst_104:A1 I
*I inst_53:A1 I
*CAP
1 cnt13 0.1872
2 inst_104:A1 0.0166
3 inst_53:A1 0.0166
4 cnt13:1 0.0183
5 cnt13:2 0.0183
6 cnt13:3 0.0356
7 cnt13:4 0.0424
8 cnt13:5 0.0144
9 cnt13:6 0.0181
10 cnt13:7 0.0181
11 cnt13:8 0.1986
12 cnt13:9 0.0180
13 cnt13:10 0.0180
14 cnt13:11 0.1157
15 cnt13:12 0.1241
16 cnt13:13 0.3967
17 cnt13:14 0.3883
18 cnt13:15 0.0407
19 cnt13:16 0.0407
20 cnt13:17 0.2099
21 cnt13:18 0.2099
*RES
2 cnt13:1 inst_104:A1 0.0050
3 cnt13:2 cnt13:1 0.0010
4 cnt13:3 cnt13:2 0.0050
5 cnt13:3 cnt13:4 0.0021
6 cnt13:4 cnt13:5 0.0010
7 cnt13:5 cnt13:6 0.0050
8 cnt13:6 cnt13:7 0.0010
9 cnt13:7 inst_53:A1 0.0050
10 cnt13:8 cnt13 0.0200
11 cnt13:9 cnt13:8 0.0050
12 cnt13:9 cnt13:10 0.0010
13 cnt13:11 cnt13:10 0.0050
14 cnt13:12 cnt13:11 0.0032
15 cnt13:12 cnt13:13 0.0010
16 cnt13:14 cnt13:13 0.0109
17 cnt13:15 cnt13:14 0.0030
18 cnt13:16 cnt13:15 0.0010
19 cnt13:17 cnt13:16 0.0030
20 cnt13:18 cnt13:4 0.0050
21 cnt13:18 cnt13:17 0.0057
*END

*D_NET pcnt241 0.7389
*CONN
*P pcnt241 I
*I inst_28:A2 I
*CAP
1 pcnt241 0.1926
2 inst_28:A2 0.0308
3 pcnt241:1 0.2040
4 pcnt241:2 0.0997
5 pcnt241:3 0.0997
6 pcnt241:4 0.0365
7 pcnt241:5 0.0365
8 pcnt241:6 0.0392
*RES
2 pcnt241 pcnt241:1 0.0171
3 inst_28:A2 pcnt241:6 0.0031
4 pcnt241:2 pcnt241:1 0.0050
5 pcnt241:3 pcnt241:2 0.0094
6 pcnt241:4 pcnt241:3 0.0050
7 pcnt241:4 pcnt241:5 0.0045
8 pcnt241:6 pcnt241:5 0.0050
*END

*D_NET net_87 0.4102
*CONN
*I inst_208:ZN O
*I inst_212:A I
*I inst_122:A2 I
*CAP
1 inst_208:ZN 0.0291
2 inst_212:A 0.0079
3 inst_122:A2 0.0076
4 net_87:1 0.0162
5 net_87:2 0.0152
6 net_87:3 0.0244
7 net_87:4 0.0244
8 net_87:5 0.0204
9 net_87:6 0.0204
10 net_87:7 0.0344
11 net_87:8 0.0196
12 net_87:9 0.0873
13 net_87:10 0.0873
14 net_87:11 0.0159
*RES
2 inst_208:ZN net_87:7 0.0031
3 inst_122:A2 net_87:11 0.0010
4 net_87:1 inst_212:A 0.0010
5 net_87:2 net_87:1 0.0050
6 net_87:3 net_87:2 0.0050
7 net_87:4 net_87:3 0.0014
8 net_87:5 net_87:4 0.0050
9 net_87:5 net_87:6 0.0010
10 net_87:7 net_87:6 0.0050
11 net_87:8 inst_208:ZN 0.0010
12 net_87:9 net_87:8 0.0050
13 net_87:9 net_87:10 0.0085
14 net_87:11 net_87:10 0.0050
*END

*D_NET net_0 0.0152
*CONN
*I inst_220:ZN O
*I inst_103:A2 I
*CAP
1 inst_220:ZN 0.0076
2 inst_103:A2 0.0076
*RES
2 inst_220:ZN inst_103:A2 0.0010
*END

*D_NET net_35 0.0152
*CONN
*I inst_195:ZN O
*I inst_74:A3 I
*CAP
1 inst_195:ZN 0.0076
2 inst_74:A3 0.0076
*RES
2 inst_195:ZN inst_74:A3 0.0010
*END

*D_NET net_16 0.1275
*CONN
*I inst_101:ZN O
*I inst_117:A1 I
*CAP
1 inst_101:ZN 0.0166
2 inst_117:A1 0.0166
3 net_16:1 0.0301
4 net_16:2 0.0324
5 net_16:3 0.0170
6 net_16:4 0.0147
*RES
2 inst_101:ZN net_16:4 0.0050
3 net_16:1 inst_117:A1 0.0050
4 net_16:2 net_16:1 0.0015
5 net_16:2 net_16:3 0.0010
6 net_16:4 net_16:3 0.0010
*END

*D_NET net_239 0.3223
*CONN
*I inst_19:ZN O
*I inst_88:A1 I
*CAP
1 inst_19:ZN 0.0166
2 inst_88:A1 0.0166
3 net_239:1 0.0697
4 net_239:2 0.0682
5 net_239:3 0.0767
6 net_239:4 0.0744
*RES
2 inst_88:A1 net_239:4 0.0050
3 net_239:1 inst_19:ZN 0.0050
4 net_239:1 net_239:2 0.0075
5 net_239:3 net_239:2 0.0010
6 net_239:3 net_239:4 0.0075
*END

*D_NET net_193 0.2139
*CONN
*I inst_78:ZN O
*I inst_68:A4 I
*CAP
1 inst_78:ZN 0.0166
2 inst_68:A4 0.0166
3 net_193:1 0.0402
4 net_193:2 0.0440
5 net_193:3 0.0298
6 net_193:4 0.0298
7 net_193:5 0.0184
8 net_193:6 0.0184
*RES
2 inst_78:ZN net_193:6 0.0050
3 net_193:1 inst_68:A4 0.0050
4 net_193:2 net_193:1 0.0020
5 net_193:3 net_193:2 0.0050
6 net_193:4 net_193:3 0.0020
7 net_193:5 net_193:4 0.0050
8 net_193:6 net_193:5 0.0010
*END

*D_NET net_157 0.8388
*CONN
*I inst_13:ZN O
*I inst_137:A2 I
*I inst_138:A2 I
*CAP
1 inst_13:ZN 0.0166
2 inst_137:A2 0.0166
3 inst_138:A2 0.0166
4 net_157:1 0.0152
5 net_157:2 0.0164
6 net_157:3 0.0164
7 net_157:4 0.0444
8 net_157:5 0.0965
9 net_157:6 0.1714
10 net_157:7 0.1714
11 net_157:8 0.0197
12 net_157:9 0.0197
13 net_157:10 0.0712
14 net_157:11 0.0712
15 net_157:12 0.0117
16 net_157:13 0.0117
17 net_157:14 0.0521
*RES
2 net_157:1 inst_137:A2 0.0050
3 net_157:2 net_157:1 0.0050
4 net_157:3 net_157:2 0.0010
5 net_157:4 net_157:3 0.0050
6 net_157:5 net_157:4 0.0015
7 net_157:5 net_157:6 0.0050
8 net_157:6 net_157:7 0.0179
9 net_157:7 net_157:8 0.0050
10 net_157:8 net_157:9 0.0010
11 net_157:9 inst_138:A2 0.0050
12 net_157:10 inst_13:ZN 0.0050
13 net_157:10 net_157:11 0.0055
14 net_157:12 net_157:11 0.0050
15 net_157:13 net_157:12 0.0010
16 net_157:14 net_157:5 0.0015
17 net_157:14 net_157:13 0.0050
*END

*D_NET net_257 0.1788
*CONN
*I inst_82:ZN O
*I inst_158:A1 I
*CAP
1 inst_82:ZN 0.0166
2 inst_158:A1 0.0166
3 net_257:1 0.0165
4 net_257:2 0.0165
5 net_257:3 0.0487
6 net_257:4 0.0487
7 net_257:5 0.0152
*RES
2 inst_82:ZN net_257:5 0.0050
3 net_257:1 inst_158:A1 0.0050
4 net_257:2 net_257:1 0.0010
5 net_257:3 net_257:2 0.0050