*SPEF "IEEE 1481-1998"
*DESIGN "c1355"
*DATE "Tue Nov 25 16:54:36 2014"
*VENDOR "TAU 2015 Contest"
*PROGRAM "Benchmark Parasitic Generator"
*VERSION "0.0"
*DESIGN_FLOW "NETLIST_TYPE_VERILOG"
*DIVIDER /
*DELIMITER :
*BUS_DELIMITER [ ]
*T_UNIT 1 PS
*C_UNIT 1 FF
*R_UNIT 1 KOHM
*L_UNIT 1 UH

*D_NET n43gat 2.3689
*CONN
*P n43gat I
*I inst_7:A I
*I inst_19:B I
*I inst_97:A I
*CAP
1 n43gat 0.0130
2 inst_7:A 0.0166
3 inst_19:B 0.0166
4 inst_97:A 0.0166
5 n43gat:1 0.0794
6 n43gat:2 0.0276
7 n43gat:3 0.1587
8 n43gat:4 0.1587
9 n43gat:5 0.3481
10 n43gat:6 0.4898
11 n43gat:7 0.0141
12 n43gat:8 0.0141
13 n43gat:9 0.0240
14 n43gat:10 0.0240
15 n43gat:11 0.0395
16 n43gat:12 0.0395
17 n43gat:13 0.0479
18 n43gat:14 0.0479
19 n43gat:15 0.1417
20 n43gat:16 0.0206
21 n43gat:17 0.0175
22 n43gat:18 0.2761
23 n43gat:19 0.2738
24 n43gat:20 0.0632
*RES
2 n43gat n43gat:16 0.0010
3 n43gat:1 inst_19:B 0.0050
4 n43gat:1 n43gat:20 0.0070
5 n43gat:2 n43gat:1 0.0015
6 n43gat:2 n43gat:3 0.0050
7 n43gat:3 n43gat:4 0.0203
8 n43gat:4 n43gat:5 0.0050
9 n43gat:6 n43gat:5 0.0109
10 n43gat:6 n43gat:7 0.0050
11 n43gat:8 n43gat:7 0.0010
12 n43gat:8 n43gat:9 0.0050
13 n43gat:10 inst_7:A 0.0050
14 n43gat:10 n43gat:9 0.0015
15 n43gat:11 inst_97:A 0.0050
16 n43gat:11 n43gat:12 0.0035
17 n43gat:13 n43gat:12 0.0050
18 n43gat:14 n43gat:13 0.0035
19 n43gat:15 n43gat:6 0.0040
20 n43gat:15 n43gat:14 0.0050
21 n43gat:17 n43gat:16 0.0050
22 n43gat:18 n43gat:17 0.0010
23 n43gat:18 n43gat:19 0.0204
24 n43gat:20 n43gat:19 0.0050
*END

*D_NET net_107 0.7347
*CONN
*I inst_113:ZN O
*I inst_141:A2 I
*I inst_142:A2 I
*I inst_147:A2 I
*I inst_148:A2 I
*CAP
1 inst_113:ZN 0.0166
2 inst_141:A2 0.0072
3 inst_142:A2 0.0166
4 inst_147:A2 0.0166
5 inst_148:A2 0.0166
6 net_107:1 0.0155
7 net_107:2 0.0152
8 net_107:3 0.0448
9 net_107:4 0.0666
10 net_107:5 0.0573
11 net_107:6 0.0719
12 net_107:7 0.0152
13 net_107:8 0.0294
14 net_107:9 0.0350
15 net_107:10 0.0221
16 net_107:11 0.0370
17 net_107:12 0.0370
18 net_107:13 0.0260
19 net_107:14 0.0312
20 net_107:15 0.0312
21 net_107:16 0.0507
22 net_107:17 0.0507
23 net_107:18 0.0243
*RES
2 inst_141:A2 net_107:1 0.0010
3 net_107:2 net_107:1 0.0050
4 net_107:3 net_107:2 0.0050
5 net_107:3 net_107:4 0.0027
6 net_107:4 net_107:8 0.0027
7 net_107:5 net_107:4 0.0050
8 net_107:6 inst_147:A2 0.0050
9 net_107:6 net_107:5 0.0065
10 net_107:7 inst_142:A2 0.0050
11 net_107:8 net_107:7 0.0050
12 net_107:9 inst_148:A2 0.0050
13 net_107:9 net_107:10 0.0020
14 net_107:10 net_107:11 0.0050
15 net_107:11 net_107:12 0.0020
16 net_107:12 net_107:13 0.0050
17 net_107:13 net_107:6 0.0015
18 net_107:14 inst_113:ZN 0.0050
19 net_107:14 net_107:15 0.0030
20 net_107:16 net_107:15 0.0050
21 net_107:17 net_107:16 0.0075
22 net_107:18 net_107:9 0.0015
23 net_107:18 net_107:17 0.0050
*END

*D_NET net_47 0.3889
*CONN
*I inst_47:ZN O
*I inst_69:A I
*CAP
1 inst_47:ZN 0.0166
2 inst_69:A 0.0166
3 net_47:1 0.0426
4 net_47:2 0.0464
5 net_47:3 0.0389
6 net_47:4 0.0389
7 net_47:5 0.0944
8 net_47:6 0.0944
*RES
2 inst_69:A net_47:6 0.0050
3 net_47:1 inst_47:ZN 0.0050
4 net_47:2 net_47:1 0.0030
5 net_47:3 net_47:2 0.0050
6 net_47:3 net_47:4 0.0041
7 net_47:5 net_47:4 0.0050
8 net_47:6 net_47:5 0.0100
*END

*D_NET n190gat 1.6867
*CONN
*P n190gat I
*I inst_3:A I
*I inst_4:B I
*I inst_76:A I
*CAP
1 n190gat 0.2445
2 inst_3:A 0.0166
3 inst_4:B 0.0166
4 inst_76:A 0.0166
5 n190gat:1 0.0255
6 n190gat:2 0.0418
7 n190gat:3 0.0278
8 n190gat:4 0.2787
9 n190gat:5 0.2787
10 n190gat:6 0.1143
11 n190gat:7 0.0406
12 n190gat:8 0.0517
13 n190gat:9 0.0517
14 n190gat:10 0.0780
15 n190gat:11 0.0818
16 n190gat:12 0.2463
17 n190gat:13 0.0755
*RES
2 n190gat:1 inst_3:A 0.0050
3 n190gat:2 n190gat:1 0.0020
4 n190gat:2 n190gat:11 0.0050
5 n190gat:3 n190gat:2 0.0010
6 n190gat:4 n190gat:3 0.0050
7 n190gat:4 n190gat:5 0.0238
8 n190gat:6 n190gat:5 0.0050
9 n190gat:6 n190gat:13 0.0065
10 n190gat:7 inst_76:A 0.0050
11 n190gat:7 n190gat:6 0.0020
12 n190gat:8 inst_4:B 0.0050
13 n190gat:8 n190gat:9 0.0035
14 n190gat:10 n190gat:9 0.0050
15 n190gat:10 n190gat:11 0.0061
16 n190gat:12 n190gat 0.0160
17 n190gat:12 n190gat:13 0.0010
*END

*D_NET n1328gat 0.5599
*CONN
*I inst_99:ZN O
*P n1328gat O
*CAP
1 n1328gat 0.1884
2 inst_99:ZN 0.0166
3 n1328gat:1 0.0324
4 n1328gat:2 0.0324
5 n1328gat:3 0.0451
6 n1328gat:4 0.0451
7 n1328gat:5 0.1998
*RES
2 n1328gat n1328gat:5 0.0171
3 n1328gat:1 inst_99:ZN 0.0050
4 n1328gat:2 n1328gat:1 0.0035
5 n1328gat:3 n1328gat:2 0.0050
6 n1328gat:3 n1328gat:4 0.0040
7 n1328gat:5 n1328gat:4 0.0050
*END

*D_NET n99gat 2.4414
*CONN
*P n99gat I
*I inst_5:A I
*I inst_6:A I
*I inst_89:A I
*CAP
1 n99gat 0.3703
2 inst_5:A 0.0332
3 inst_6:A 0.0166
4 inst_89:A 0.0166
5 n99gat:1 0.0152
6 n99gat:2 0.1903
7 n99gat:3 0.1011
8 n99gat:4 0.0635
9 n99gat:5 0.0635
10 n99gat:6 0.1001
11 n99gat:7 0.1001
12 n99gat:8 0.0704
13 n99gat:9 0.0704
14 n99gat:10 0.2280
15 n99gat:11 0.2280
16 n99gat:12 0.0289
17 n99gat:13 0.0289
18 n99gat:14 0.3817
19 n99gat:15 0.0346
20 n99gat:16 0.0346
21 n99gat:17 0.0787
22 n99gat:18 0.0748
23 n99gat:19 0.0152
24 n99gat:20 0.0969
*RES
2 n99gat n99gat:14 0.0316
3 inst_5:A n99gat:18 0.0050
4 n99gat:1 inst_6:A 0.0050
5 n99gat:2 n99gat:1 0.0050
6 n99gat:2 n99gat:3 0.0127
7 n99gat:3 n99gat:4 0.0050
8 n99gat:5 n99gat:4 0.0017
9 n99gat:5 n99gat:6 0.0050
10 n99gat:6 n99gat:7 0.0090
11 n99gat:7 n99gat:8 0.0050
12 n99gat:9 n99gat:8 0.0019
13 n99gat:9 n99gat:10 0.0050
14 n99gat:10 n99gat:11 0.0258
15 n99gat:11 n99gat:12 0.0050
16 n99gat:13 inst_89:A 0.0050
17 n99gat:13 n99gat:12 0.0030
18 n99gat:15 n99gat:14 0.0050
19 n99gat:15 n99gat:16 0.0027
20 n99gat:17 n99gat:16 0.0050
21 n99gat:17 n99gat:18 0.0045
22 n99gat:19 inst_5:A 0.0050
23 n99gat:20 n99gat:2 0.0075
24 n99gat:20 n99gat:19 0.0050
*END

*D_NET net_61 0.2018
*CONN
*I inst_53:ZN O
*I inst_58:A I
*CAP
1 inst_53:ZN 0.0166
2 inst_58:A 0.0166
3 net_61:1 0.0181
4 net_61:2 0.0181
5 net_61:3 0.0453
6 net_61:4 0.0453
7 net_61:5 0.0210
8 net_61:6 0.0210
*RES
2 inst_53:ZN net_61:6 0.0050
3 net_61:1 inst_58:A 0.0050
4 net_61:1 net_61:2 0.0010
5 net_61:3 net_61:2 0.0050
6 net_61:4 net_61:3 0.0020
7 net_61:5 net_61:4 0.0050
8 net_61:6 net_61:5 0.0010
*END

*D_NET net_137 0.1440
*CONN
*I inst_165:ZN O
*I inst_93:B I
*CAP
1 inst_165:ZN 0.0117
2 inst_93:B 0.0166
3 net_137:1 0.0200
4 net_137:2 0.0152
5 net_137:3 0.0327
6 net_137:4 0.0327
7 net_137:5 0.0152
*RES
2 inst_165:ZN net_137:1 0.0021
3 inst_93:B net_137:5 0.0050
4 net_137:2 net_137:1 0.0050
5 net_137:3 net_137:2 0.0050
6 net_137:3 net_137:4 0.0047
7 net_137:5 net_137:4 0.0050
*END

*D_NET n1338gat 0.8940
*CONN
*I inst_89:ZN O
*P n1338gat O
*CAP
1 n1338gat 0.0013
2 inst_89:ZN 0.0166
3 n1338gat:1 0.0464
4 n1338gat:2 0.0464
5 n1338gat:3 0.0150
6 n1338gat:4 0.0150
7 n1338gat:5 0.1547
8 n1338gat:6 0.1547
9 n1338gat:7 0.1845
10 n1338gat:8 0.1883
11 n1338gat:9 0.0386
12 n1338gat:10 0.0323
*RES
2 n1338gat:1 inst_89:ZN 0.0050
3 n1338gat:2 n1338gat:1 0.0035
4 n1338gat:3 n1338gat:2 0.0050
5 n1338gat:3 n1338gat:4 0.0010
6 n1338gat:5 n1338gat:4 0.0050
7 n1338gat:6 n1338gat:5 0.0048
8 n1338gat:7 n1338gat:6 0.0050
9 n1338gat:7 n1338gat:8 0.0189
10 n1338gat:9 n1338gat:8 0.0050
11 n1338gat:10 n1338gat 0.0010
12 n1338gat:10 n1338gat:9 0.0033
*END

*D_NET net_132 0.3073
*CONN
*I inst_162:ZN O
*I inst_100:B I
*CAP
1 inst_162:ZN 0.0166
2 inst_100:B 0.0166
3 net_132:1 0.0171
4 net_132:2 0.0171
5 net_132:3 0.0676
6 net_132:4 0.0676
7 net_132:5 0.0523
8 net_132:6 0.0523
*RES
2 inst_100:B net_132:6 0.0050
3 net_132:1 inst_162:ZN 0.0050
4 net_132:2 net_132:1 0.0010
5 net_132:3 net_132:2 0.0050
6 net_132:3 net_132:4 0.0047
7 net_132:5 net_132:4 0.0050
8 net_132:6 net_132:5 0.0035
*END

*D_NET net_54 0.4037
*CONN
*I inst_42:ZN O
*I inst_50:A I
*I inst_55:A I
*CAP
1 inst_42:ZN 0.0244
2 inst_50:A 0.0332
3 inst_55:A 0.0166
4 net_54:1 0.0152
5 net_54:2 0.0320
6 net_54:3 0.0320
7 net_54:4 0.0484
8 net_54:5 0.0484
9 net_54:6 0.0327
10 net_54:7 0.0605
11 net_54:8 0.0605
*RES
2 inst_42:ZN net_54:6 0.0031
3 inst_50:A net_54:8 0.0050
4 inst_50:A net_54:5 0.0050
5 net_54:1 inst_55:A 0.0050
6 net_54:2 net_54:1 0.0050
7 net_54:3 net_54:2 0.0020
8 net_54:4 net_54:3 0.0050
9 net_54:4 net_54:5 0.0065
10 net_54:7 net_54:6 0.0050
11 net_54:8 net_54:7 0.0055
*END

*D_NET net_105 2.2594
*CONN
*I inst_177:ZN O
*I inst_107:A2 I
*I inst_120:A1 I
*I inst_125:A2 I
*I inst_140:A1 I
*I inst_142:A1 I
*I inst_146:A1 I
*I inst_155:A1 I
*CAP
1 inst_177:ZN 0.0099
2 inst_107:A2 0.0356
3 inst_120:A1 0.0166
4 inst_125:A2 0.0166
5 inst_140:A1 0.0166
6 inst_142:A1 0.0166
7 inst_146:A1 0.0166
8 inst_155:A1 0.0166
9 net_105:1 0.0152
10 net_105:2 0.0636
11 net_105:3 0.0636
12 net_105:4 0.0455
13 net_105:5 0.0455
14 net_105:6 0.0173
15 net_105:7 0.0173
16 net_105:8 0.0232
17 net_105:9 0.0320
18 net_105:10 0.0203
19 net_105:11 0.0455
20 net_105:12 0.0417
21 net_105:13 0.0510
22 net_105:14 0.0743
23 net_105:15 0.0435
24 net_105:16 0.0435
25 net_105:17 0.0450
26 net_105:18 0.0488
27 net_105:19 0.1167
28 net_105:20 0.1215
29 net_105:21 0.2259
30 net_105:22 0.2259
31 net_105:23 0.0202
32 net_105:24 0.0202
33 net_105:25 0.0317
34 net_105:26 0.0279
35 net_105:27 0.0516
36 net_105:28 0.0554
37 net_105:29 0.0810
38 net_105:30 0.1216
39 net_105:31 0.0482
40 net_105:32 0.0162
41 net_105:33 0.0162
42 net_105:34 0.0314
43 net_105:35 0.0152
44 net_105:36 0.0124
45 net_105:37 0.0347
46 net_105:38 0.0182
47 net_105:39 0.0428
48 net_105:40 0.0428
*RES
2 inst_177:ZN net_105:38 0.0010
3 inst_107:A2 net_105:1 0.0050
4 net_105:1 net_105:2 0.0050
5 net_105:2 net_105:3 0.0053
6 net_105:3 net_105:4 0.0050
7 net_105:4 net_105:5 0.0015
8 net_105:5 net_105:6 0.0050
9 net_105:6 net_105:7 0.0010
10 net_105:7 net_105:8 0.0050
11 net_105:8 net_105:9 0.0015
12 net_105:9 inst_120:A1 0.0050
13 net_105:9 net_105:10 0.0010
14 net_105:10 net_105:11 0.0050
15 net_105:11 net_105:12 0.0034
16 net_105:12 net_105:13 0.0050
17 net_105:13 net_105:14 0.0035
18 net_105:14 net_105:37 0.0030
19 net_105:14 net_105:15 0.0050
20 net_105:15 net_105:16 0.0034
21 net_105:16 net_105:17 0.0050
22 net_105:17 net_105:18 0.0030
23 net_105:18 inst_142:A1 0.0050
24 net_105:18 net_105:19 0.0050
25 net_105:19 net_105:20 0.0104
26 net_105:20 net_105:36 0.0010
27 net_105:20 net_105:21 0.0050
28 net_105:22 net_105:21 0.0065
29 net_105:22 net_105:23 0.0050
30 net_105:23 net_105:24 0.0012
31 net_105:24 net_105:25 0.0050
32 net_105:26 inst_146:A1 0.0050
33 net_105:26 net_105:25 0.0020
34 net_105:27 inst_125:A2 0.0050
35 net_105:27 net_105:28 0.0045
36 net_105:29 net_105:28 0.0050
37 net_105:29 net_105:30 0.0068
38 net_105:30 net_105:31 0.0041
39 net_105:31 net_105:32 0.0050
40 net_105:32 net_105:33 0.0010
41 net_105:33 net_105:34 0.0050
42 net_105:34 inst_107:A2 0.0031
43 net_105:35 inst_155:A1 0.0050
44 net_105:36 net_105:35 0.0050
45 net_105:37 inst_140:A1 0.0050
46 net_105:39 net_105:38 0.0050
47 net_105:40 net_105:30 0.0050
48 net_105:40 net_105:39 0.0050
*END

*D_NET net_62 0.0979
*CONN
*I inst_54:ZN O
*I inst_63:A I
*CAP
1 inst_54:ZN 0.0166
2 inst_63:A 0.0166
3 net_62:1 0.0323
4 net_62:2 0.0323
*RES
2 inst_63:A net_62:2 0.0050
3 net_62:1 inst_54:ZN 0.0050
4 net_62:1 net_62:2 0.0030
*END

*D_NET net_6 0.3585
*CONN
*I inst_132:ZN O
*I inst_62:B I
*CAP
1 inst_132:ZN 0.0160
2 inst_62:B 0.0166
3 net_6:1 0.0244
4 net_6:2 0.0374
5 net_6:3 0.0336
6 net_6:4 0.0916
7 net_6:5 0.0916
8 net_6:6 0.0237
9 net_6:7 0.0237
*RES
2 inst_132:ZN net_6:1 0.0021
3 inst_62:B net_6:7 0.0050
4 net_6:2 net_6:1 0.0050
5 net_6:2 net_6:3 0.0015
6 net_6:4 net_6:3 0.0050
7 net_6:4 net_6:5 0.0088
8 net_6:6 net_6:5 0.0050
9 net_6:6 net_6:7 0.0014
*END

*D_NET n176gat 0.9905
*CONN
*P n176gat I
*I inst_31:A I
*I inst_20:B I
*I inst_78:A I
*CAP
1 n176gat 0.0483
2 inst_31:A 0.0166
3 inst_20:B 0.0332
4 inst_78:A 0.0166
5 n176gat:1 0.0180
6 n176gat:2 0.0180
7 n176gat:3 0.0395
8 n176gat:4 0.1329
9 n176gat:5 0.1010
10 n176gat:6 0.0175
11 n176gat:7 0.0175
12 n176gat:8 0.0499
13 n176gat:9 0.0719
14 n176gat:10 0.0803
15 n176gat:11 0.1193
16 n176gat:12 0.1170
17 n176gat:13 0.0464
18 n176gat:14 0.0464
*RES
2 inst_20:B n176gat:12 0.0050
3 n176gat:1 inst_31:A 0.0050
4 n176gat:1 n176gat:2 0.0010
5 n176gat:3 n176gat:2 0.0050
6 n176gat:3 n176gat:4 0.0027
7 n176gat:4 n176gat:5 0.0081
8 n176gat:5 n176gat:6 0.0050
9 n176gat:7 inst_78:A 0.0050
10 n176gat:7 n176gat:6 0.0010
11 n176gat:8 n176gat 0.0065
12 n176gat:8 n176gat:9 0.0010
13 n176gat:10 n176gat:9 0.0050
14 n176gat:11 n176gat:10 0.0010
15 n176gat:12 n176gat:11 0.0090
16 n176gat:13 inst_20:B 0.0050
17 n176gat:14 n176gat:4 0.0050
18 n176gat:14 n176gat:13 0.0030
*END

*D_NET net_129 0.2309
*CONN
*I inst_160:ZN O
*I inst_97:B I
*CAP
1 inst_160:ZN 0.0166
2 inst_97:B 0.0166
3 net_129:1 0.0326
4 net_129:2 0.0326
5 net_129:3 0.0203
6 net_129:4 0.0203
7 net_129:5 0.0459
8 net_129:6 0.0459
*RES
2 inst_97:B net_129:6 0.0050
3 net_129:1 inst_160:ZN 0.0050
4 net_129:2 net_129:1 0.0025
5 net_129:3 net_129:2 0.0050
6 net_129:3 net_129:4 0.0014
7 net_129:5 net_129:4 0.0050
8 net_129:6 net_129:5 0.0055
*END

*D_NET net_119 0.1341
*CONN
*I inst_152:ZN O
*I inst_72:B I
*CAP
1 inst_152:ZN 0.0143
2 inst_72:B 0.0166
3 net_119:1 0.0152
4 net_119:2 0.0230
5 net_119:3 0.0230
6 net_119:4 0.0152
7 net_119:5 0.0268
*RES
2 net_119:1 inst_72:B 0.0050
3 net_119:2 net_119:1 0.0050
4 net_119:2 net_119:3 0.0014
5 net_119:4 net_119:3 0.0050
6 net_119:5 inst_152:ZN 0.0021
7 net_119:5 net_119:4 0.0050
*END

*D_NET net_98 0.1836
*CONN
*I inst_142:ZN O
*I inst_83:B I
*CAP
1 inst_142:ZN 0.0335
2 inst_83:B 0.0166
3 net_98:1 0.0418
4 net_98:2 0.0458
5 net_98:3 0.0458
*RES
2 inst_142:ZN net_98:1 0.0041
3 inst_83:B net_98:3 0.0050
4 net_98:2 net_98:1 0.0050
5 net_98:3 net_98:2 0.0030
*END

*D_NET net_23 0.2730
*CONN
*I inst_28:ZN O
*I inst_43:B I
*CAP
1 inst_28:ZN 0.0072
2 inst_43:B 0.0166
3 net_23:1 0.0169
4 net_23:2 0.0169
5 net_23:3 0.0903
6 net_23:4 0.0903
7 net_23:5 0.0152
8 net_23:6 0.0196
*RES
2 net_23:1 inst_43:B 0.0050
3 net_23:2 net_23:1 0.0010
4 net_23:3 net_23:2 0.0050
5 net_23:4 net_23:3 0.0054
6 net_23:5 net_23:4 0.0050
7 net_23:6 inst_28:ZN 0.0010
8 net_23:6 net_23:5 0.0050
*END

*D_NET net_117 0.1780
*CONN
*I inst_151:ZN O
*I inst_77:B I
*CAP
1 inst_151:ZN 0.0228
2 inst_77:B 0.0166
3 net_117:1 0.0152
4 net_117:2 0.0297
5 net_117:3 0.0297
6 net_117:4 0.0164
7 net_117:5 0.0164
8 net_117:6 0.0311
*RES
2 inst_151:ZN net_117:6 0.0031
3 net_117:1 inst_77:B 0.0050
4 net_117:2 net_117:1 0.0050
5 net_117:3 net_117:2 0.0027
6 net_117:4 net_117:3 0.0050
7 net_117:4 net_117:5 0.0010
8 net_117:6 net_117:5 0.0050
*END

*D_NET net_12 0.2151
*CONN
*I inst_4:Z O
*I inst_47:A I
*CAP
1 inst_4:Z 0.0166
2 inst_47:A 0.0166
3 net_12:1 0.0161
4 net_12:2 0.0161
5 net_12:3 0.0376
6 net_12:4 0.0376
7 net_12:5 0.0372
8 net_12:6 0.0372
*RES
2 inst_4:Z net_12:6 0.0050
3 net_12:1 inst_47:A 0.0050
4 net_12:2 net_12:1 0.0010
5 net_12:3 net_12:2 0.0050
6 net_12:3 net_12:4 0.0027
7 net_12:5 net_12:4 0.0050
8 net_12:6 net_12:5 0.0025
*END

*D_NET net_74 1.0423
*CONN
*I inst_68:ZN O
*I inst_175:A I
*I inst_135:A2 I
*I inst_120:A2 I
*CAP
1 inst_68:ZN 0.0166
2 inst_175:A 0.0488
3 inst_135:A2 0.0166
4 inst_120:A2 0.0166
5 net_74:1 0.1112
6 net_74:2 0.0203
7 net_74:3 0.0667
8 net_74:4 0.0667
9 net_74:5 0.0708
10 net_74:6 0.0708
11 net_74:7 0.0822
12 net_74:8 0.0784
13 net_74:9 0.0206
14 net_74:10 0.0206
15 net_74:11 0.0152
16 net_74:12 0.0442
17 net_74:13 0.0442
18 net_74:14 0.1061
19 net_74:15 0.0175
20 net_74:16 0.0330
21 net_74:17 0.0307
22 net_74:18 0.0446
*RES
2 inst_175:A net_74:1 0.0050
3 net_74:1 net_74:2 0.0010
4 net_74:2 net_74:3 0.0050
5 net_74:3 net_74:4 0.0081
6 net_74:4 net_74:5 0.0050
7 net_74:5 net_74:6 0.0013
8 net_74:6 net_74:7 0.0050
9 net_74:7 net_74:8 0.0082
10 net_74:8 net_74:9 0.0050
11 net_74:10 inst_120:A2 0.0050
12 net_74:10 net_74:9 0.0010
13 net_74:11 inst_135:A2 0.0050
14 net_74:12 net_74:11 0.0050
15 net_74:13 net_74:12 0.0047
16 net_74:14 net_74:1 0.0065
17 net_74:14 net_74:13 0.0050
18 net_74:15 inst_68:ZN 0.0050
19 net_74:15 net_74:16 0.0010
20 net_74:17 net_74:16 0.0030
21 net_74:18 inst_175:A 0.0052
22 net_74:18 net_74:17 0.0050
*END

*D_NET net_53 0.2104
*CONN
*I inst_49:ZN O
*I inst_57:A I
*CAP
1 inst_49:ZN 0.0166
2 inst_57:A 0.0166
3 net_53:1 0.0164
4 net_53:2 0.0164
5 net_53:3 0.0646
6 net_53:4 0.0646
7 net_53:5 0.0152
*RES
2 inst_57:A net_53:5 0.0050
3 net_53:1 inst_49:ZN 0.0050
4 net_53:1 net_53:2 0.0010
5 net_53:3 net_53:2 0.0050
6 net_53:3 net_53:4 0.0054
7 net_53:5 net_53:4 0.0050
*END

*D_NET net_93 0.4935
*CONN
*I inst_106:ZN O
*I inst_179:A1 I
*I inst_111:A1 I
*I inst_113:A1 I
*CAP
1 inst_106:ZN 0.0076
2 inst_179:A1 0.0166
3 inst_111:A1 0.0166
4 inst_113:A1 0.0166
5 net_93:1 0.0938
6 net_93:2 0.1243
7 net_93:3 0.0199
8 net_93:4 0.0199
9 net_93:5 0.0152
10 net_93:6 0.0869
11 net_93:7 0.0159
12 net_93:8 0.0601
*RES
2 inst_106:ZN net_93:7 0.0010
3 net_93:1 inst_179:A1 0.0050
4 net_93:1 net_93:2 0.0035
5 net_93:2 net_93:6 0.0075
6 net_93:2 net_93:3 0.0050
7 net_93:4 net_93:3 0.0014
8 net_93:4 net_93:5 0.0050
9 net_93:5 inst_111:A1 0.0050
10 net_93:6 inst_113:A1 0.0050
11 net_93:8 net_93:1 0.0040
12 net_93:8 net_93:7 0.0050
*END

*D_NET n1353gat 0.5772
*CONN
*I inst_74:ZN O
*P n1353gat O
*CAP
1 n1353gat 0.0013
2 inst_74:ZN 0.0166
3 n1353gat:1 0.0584
4 n1353gat:2 0.0584
5 n1353gat:3 0.1735
6 n1353gat:4 0.1773
7 n1353gat:5 0.0489
8 n1353gat:6 0.0426
*RES
2 n1353gat:1 inst_74:ZN 0.0050
3 n1353gat:1 n1353gat:2 0.0050
4 n1353gat:3 n1353gat:2 0.0050
5 n1353gat:3 n1353gat:4 0.0183
6 n1353gat:5 n1353gat:4 0.0050
7 n1353gat:5 n1353gat:6 0.0044
8 n1353gat:6 n1353gat 0.0010
*END

*D_NET net_135 0.1481
*CONN
*I inst_164:ZN O
*I inst_98:B I
*CAP
1 inst_164:ZN 0.0166
2 inst_98:B 0.0166
3 net_135:1 0.0260
4 net_135:2 0.0283
5 net_135:3 0.0314
6 net_135:4 0.0292
*RES
2 inst_98:B net_135:4 0.0050
3 net_135:1 inst_164:ZN 0.0050
4 net_135:2 net_135:1 0.0020
5 net_135:3 net_135:2 0.0010
6 net_135:4 net_135:3 0.0025
*END

*D_NET net_130 0.2592
*CONN
*I inst_161:ZN O
*I inst_91:B I
*CAP
1 inst_161:ZN 0.0166
2 inst_91:B 0.0166
3 net_130:1 0.0182
4 net_130:2 0.0182
5 net_130:3 0.0490
6 net_130:4 0.0490
7 net_130:5 0.0458
8 net_130:6 0.0458
*RES
2 inst_91:B net_130:6 0.0050
3 net_130:1 inst_161:ZN 0.0050
4 net_130:2 net_130:1 0.0010
5 net_130:3 net_130:2 0.0050
6 net_130:3 net_130:4 0.0054
7 net_130:5 net_130:4 0.0050
8 net_130:6 net_130:5 0.0035
*END

*D_NET n1347gat 0.9389
*CONN
*I inst_80:ZN O
*P n1347gat O
*CAP
1 n1347gat 0.0013
2 inst_80:ZN 0.0166
3 n1347gat:1 0.0453
4 n1347gat:2 0.0453
5 n1347gat:3 0.3662
6 n1347gat:4 0.3700
7 n1347gat:5 0.0503
8 n1347gat:6 0.0440
*RES
2 n1347gat:1 inst_80:ZN 0.0050
3 n1347gat:2 n1347gat:1 0.0030
4 n1347gat:3 n1347gat:2 0.0050
5 n1347gat:3 n1347gat:4 0.0394
6 n1347gat:5 n1347gat:4 0.0050
7 n1347gat:6 n1347gat 0.0010
8 n1347gat:6 n1347gat:5 0.0046
*END

*D_NET net_147 0.2153
*CONN
*I inst_171:ZN O
*I inst_103:B I
*CAP
1 inst_171:ZN 0.0208
2 inst_103:B 0.0166
3 net_147:1 0.0291
4 net_147:2 0.0152
5 net_147:3 0.0291
6 net_147:4 0.0291
7 net_147:5 0.0377
8 net_147:6 0.0377
*RES
2 inst_103:B net_147:6 0.0050
3 net_147:1 inst_171:ZN 0.0021
4 net_147:2 net_147:1 0.0050
5 net_147:3 net_147:2 0.0050
6 net_147:4 net_147:3 0.0027
7 net_147:5 net_147:4 0.0050
8 net_147:6 net_147:5 0.0040
*END

*D_NET net_127 1.0625
*CONN
*I inst_116:ZN O
*I inst_156:A2 I
*I inst_157:A2 I
*I inst_159:A2 I
*I inst_161:A2 I
*CAP
1 inst_116:ZN 0.0228
2 inst_156:A2 0.0166
3 inst_157:A2 0.0074
4 inst_159:A2 0.0166
5 inst_161:A2 0.0166
6 net_127:1 0.0485
7 net_127:2 0.1461
8 net_127:3 0.0679
9 net_127:4 0.0679
10 net_127:5 0.0177
11 net_127:6 0.0186
12 net_127:7 0.0162
13 net_127:8 0.0458
14 net_127:9 0.0420
15 net_127:10 0.0621
16 net_127:11 0.0595
17 net_127:12 0.0157
18 net_127:13 0.0178
19 net_127:14 0.0311
20 net_127:15 0.0256
21 net_127:16 0.0256
22 net_127:17 0.0845
23 net_127:18 0.0845
24 net_127:19 0.1052
*RES
2 inst_116:ZN net_127:14 0.0031
3 net_127:1 inst_156:A2 0.0050
4 net_127:1 net_127:2 0.0030
5 net_127:2 net_127:19 0.0085
6 net_127:2 net_127:3 0.0050
7 net_127:3 net_127:4 0.0054
8 net_127:4 net_127:5 0.0050
9 net_127:5 net_127:6 0.0010
10 net_127:6 inst_161:A2 0.0050
11 net_127:6 net_127:7 0.0010
12 net_127:7 net_127:8 0.0050
13 net_127:8 net_127:9 0.0034
14 net_127:9 net_127:10 0.0050
15 net_127:10 net_127:11 0.0060
16 net_127:11 net_127:12 0.0050
17 net_127:12 inst_157:A2 0.0010
18 net_127:13 inst_159:A2 0.0050
19 net_127:13 net_127:10 0.0010
20 net_127:15 net_127:14 0.0050
21 net_127:16 net_127:15 0.0015
22 net_127:17 net_127:16 0.0050
23 net_127:17 net_127:18 0.0102
24 net_127:19 net_127:18 0.0050
*END

*D_NET net_14 0.1556
*CONN
*I inst_5:Z O
*I inst_41:A I
*CAP
1 inst_5:Z 0.0166
2 inst_41:A 0.0166
3 net_14:1 0.0631
4 net_14:2 0.0593
*RES
2 inst_41:A net_14:2 0.0050
3 net_14:1 inst_5:Z 0.0050
4 net_14:1 net_14:2 0.0050
*END

*D_NET n1351gat 0.5125
*CONN
*I inst_76:ZN O
*P n1351gat O
*CAP
1 n1351gat 0.0013
2 inst_76:ZN 0.0166
3 n1351gat:1 0.0276
4 n1351gat:2 0.0276
5 n1351gat:3 0.2047
6 n1351gat:4 0.2085
7 n1351gat:5 0.0163
8 n1351gat:6 0.0100
*RES
2 n1351gat:1 inst_76:ZN 0.0050
3 n1351gat:1 n1351gat:2 0.0015
4 n1351gat:3 n1351gat:2 0.0050
5 n1351gat:3 n1351gat:4 0.0238
6 n1351gat:5 n1351gat:4 0.0050
7 n1351gat:5 n1351gat:6 0.0010
8 n1351gat:6 n1351gat 0.0010
*END

*D_NET net_113 0.2747
*CONN
*I inst_149:ZN O
*I inst_74:B I
*CAP
1 inst_149:ZN 0.0077
2 inst_74:B 0.0166
3 net_113:1 0.0160
4 net_113:2 0.1172
5 net_113:3 0.1172
*RES
2 inst_149:ZN net_113:1 0.0010
3 inst_74:B net_113:3 0.0050
4 net_113:2 net_113:1 0.0050
5 net_113:2 net_113:3 0.0100
*END

*D_NET net_26 0.2780
*CONN
*I inst_13:Z O
*I inst_46:A I
*CAP
1 inst_13:Z 0.0139
2 inst_46:A 0.0166
3 net_26:1 0.0223
4 net_26:2 0.0164
5 net_26:3 0.0164
6 net_26:4 0.0886
7 net_26:5 0.0886
8 net_26:6 0.0152
*RES
2 inst_46:A net_26:6 0.0050
3 net_26:1 inst_13:Z 0.0020
4 net_26:2 net_26:1 0.0050
5 net_26:2 net_26:3 0.0010
6 net_26:4 net_26:3 0.0050
7 net_26:5 net_26:4 0.0081
8 net_26:6 net_26:5 0.0050
*END

*D_NET n204gat 1.5792
*CONN
*P n204gat I
*I inst_12:A I
*I inst_20:A I
*I inst_74:A I
*CAP
1 n204gat 0.0088
2 inst_12:A 0.0166
3 inst_20:A 0.0166
4 inst_74:A 0.0166
5 n204gat:1 0.0239
6 n204gat:2 0.1056
7 n204gat:3 0.0894
8 n204gat:4 0.0164
9 n204gat:5 0.2375
10 n204gat:6 0.1597
11 n204gat:7 0.1597
12 n204gat:8 0.0202
13 n204gat:9 0.2359
14 n204gat:10 0.2359
15 n204gat:11 0.2363
*RES
2 n204gat:1 inst_20:A 0.0050
3 n204gat:2 n204gat:1 0.0010
4 n204gat:3 inst_12:A 0.0050
5 n204gat:3 n204gat:2 0.0055
6 n204gat:4 inst_74:A 0.0050
7 n204gat:4 n204gat:5 0.0010
8 n204gat:5 n204gat:11 0.0195
9 n204gat:5 n204gat:6 0.0050
10 n204gat:7 n204gat:2 0.0050
11 n204gat:7 n204gat:6 0.0163
12 n204gat:8 n204gat 0.0010
13 n204gat:9 n204gat:8 0.0050
14 n204gat:10 n204gat:9 0.0141
15 n204gat:11 n204gat:10 0.0050
*END

*D_NET net_76 0.3044
*CONN
*I inst_179:ZN O
*I inst_104:A3 I
*CAP
1 inst_179:ZN 0.0152
2 inst_104:A3 0.0166
3 net_76:1 0.0195
4 net_76:2 0.0195
5 net_76:3 0.0646
6 net_76:4 0.0646
7 net_76:5 0.0404
8 net_76:6 0.0404
9 net_76:7 0.0235
*RES
2 net_76:1 inst_104:A3 0.0050
3 net_76:1 net_76:2 0.0015
4 net_76:3 net_76:2 0.0050
5 net_76:3 net_76:4 0.0061
6 net_76:5 net_76:4 0.0050
7 net_76:5 net_76:6 0.0025
8 net_76:7 inst_179:ZN 0.0021
9 net_76:7 net_76:6 0.0050
*END

*D_NET net_101 0.2066
*CONN
*I inst_143:ZN O
*I inst_84:B I
*CAP
1 inst_143:ZN 0.0203
2 inst_84:B 0.0166
3 net_101:1 0.0286
4 net_101:2 0.0164
5 net_101:3 0.0164
6 net_101:4 0.0465
7 net_101:5 0.0465
8 net_101:6 0.0152
*RES
2 inst_143:ZN net_101:1 0.0041
3 inst_84:B net_101:6 0.0050
4 net_101:2 net_101:1 0.0050
5 net_101:2 net_101:3 0.0010
6 net_101:4 net_101:3 0.0050
7 net_101:4 net_101:5 0.0027
8 net_101:6 net_101:5 0.0050
*END

*D_NET net_32 0.1886
*CONN
*I inst_17:Z O
*I inst_33:A I
*CAP
1 inst_17:Z 0.0166
2 inst_33:A 0.0166
3 net_32:1 0.0152
4 net_32:2 0.0536
5 net_32:3 0.0536
6 net_32:4 0.0165
7 net_32:5 0.0165
*RES
2 inst_33:A net_32:5 0.0050
3 net_32:1 inst_17:Z 0.0050
4 net_32:2 net_32:1 0.0050
5 net_32:2 net_32:3 0.0061
6 net_32:4 net_32:3 0.0050
7 net_32:4 net_32:5 0.0010
*END

*D_NET net_111 0.4310
*CONN
*I inst_135:ZN O
*I inst_116:A1 I
*I inst_118:A1 I
*CAP
1 inst_135:ZN 0.0099
2 inst_116:A1 0.0166
3 inst_118:A1 0.0166
4 net_111:1 0.0152
5 net_111:2 0.0658
6 net_111:3 0.1009
7 net_111:4 0.0427
8 net_111:5 0.0152
9 net_111:6 0.0182
10 net_111:7 0.0650
11 net_111:8 0.0650
*RES
2 net_111:1 inst_116:A1 0.0050
3 net_111:2 net_111:1 0.0050
4 net_111:3 net_111:2 0.0054
5 net_111:4 net_111:3 0.0034
6 net_111:4 net_111:5 0.0050
7 net_111:5 inst_118:A1 0.0050
8 net_111:6 inst_135:ZN 0.0010
9 net_111:7 net_111:6 0.0050
10 net_111:8 net_111:3 0.0050
11 net_111:8 net_111:7 0.0070
*END

*D_NET n1332gat 1.2608
*CONN
*I inst_95:ZN O
*P n1332gat O
*CAP
1 n1332gat 0.1750
2 inst_95:ZN 0.0126
3 n1332gat:1 0.0209
4 n1332gat:2 0.0589
5 n1332gat:3 0.0589
6 n1332gat:4 0.0352
7 n1332gat:5 0.0314
8 n1332gat:6 0.1555
9 n1332gat:7 0.1555
10 n1332gat:8 0.1853
11 n1332gat:9 0.1853
12 n1332gat:10 0.1864
*RES
2 n1332gat n1332gat:10 0.0146
3 inst_95:ZN n1332gat:1 0.0021
4 n1332gat:2 n1332gat:1 0.0050
5 n1332gat:3 n1332gat:2 0.0040
6 n1332gat:4 n1332gat:3 0.0050
7 n1332gat:4 n1332gat:5 0.0036
8 n1332gat:6 n1332gat:5 0.0050
9 n1332gat:7 n1332gat:6 0.0044
10 n1332gat:8 n1332gat:7 0.0050
11 n1332gat:8 n1332gat:9 0.0186
12 n1332gat:10 n1332gat:9 0.0050
*END

*D_NET n1329gat 0.5059
*CONN
*I inst_98:ZN O
*P n1329gat O
*CAP
1 n1329gat 0.1766
2 inst_98:ZN 0.0166
3 n1329gat:1 0.0355
4 n1329gat:2 0.0355
5 n1329gat:3 0.0268
6 n1329gat:4 0.0268
7 n1329gat:5 0.1880
*RES
2 n1329gat n1329gat:5 0.0171
3 n1329gat:1 inst_98:ZN 0.0050
4 n1329gat:2 n1329gat:1 0.0035
5 n1329gat:3 n1329gat:2 0.0050
6 n1329gat:3 n1329gat:4 0.0019
7 n1329gat:5 n1329gat:4 0.0050
*END

*D_NET net_90 0.4812
*CONN
*I inst_119:ZN O
*I inst_138:A2 I
*I inst_139:A2 I
*CAP
1 inst_119:ZN 0.0166
2 inst_138:A2 0.0344
3 inst_139:A2 0.0220
4 net_90:1 0.0555
5 net_90:2 0.0555
6 net_90:3 0.0924
7 net_90:4 0.0924
8 net_90:5 0.0563
9 net_90:6 0.0563
*RES
2 inst_139:A2 inst_138:A2 0.0041
3 net_90:1 inst_119:ZN 0.0050
4 net_90:2 net_90:1 0.0040
5 net_90:3 net_90:2 0.0050
6 net_90:3 net_90:4 0.0047
7 net_90:5 net_90:4 0.0050
8 net_90:6 inst_138:A2 0.0050
9 net_90:6 net_90:5 0.0055
*END

*D_NET net_40 0.2100
*CONN
*I inst_33:ZN O
*I inst_67:A I
*CAP
1 inst_33:ZN 0.0166
2 inst_67:A 0.0166
3 net_40:1 0.0178
4 net_40:2 0.0178
5 net_40:3 0.0630
6 net_40:4 0.0630
7 net_40:5 0.0152
*RES
2 inst_33:ZN net_40:5 0.0050
3 net_40:1 inst_67:A 0.0050
4 net_40:1 net_40:2 0.0010
5 net_40:3 net_40:2 0.0050
6 net_40:4 net_40:3 0.0054
7 net_40:5 net_40:4 0.0050
*END

*D_NET net_100 0.2826
*CONN
*I inst_134:ZN O
*I inst_115:A1 I
*I inst_117:A1 I
*CAP
1 inst_134:ZN 0.0728
2 inst_115:A1 0.0161
3 inst_117:A1 0.0166
4 net_100:1 0.0526
5 net_100:2 0.0446
6 net_100:3 0.0399
7 net_100:4 0.0399
*RES
2 inst_134:ZN net_100:2 0.0072
3 inst_115:A1 net_100:1 0.0015
4 inst_117:A1 net_100:4 0.0050
5 net_100:1 inst_134:ZN 0.0052
6 net_100:3 net_100:2 0.0050
7 net_100:4 net_100:3 0.0025
*END

*D_NET n8gat 1.6964
*CONN
*P n8gat I
*I inst_0:A I
*I inst_23:A I
*I inst_102:A I
*CAP
1 n8gat 0.1155
2 inst_0:A 0.0166
3 inst_23:A 0.0332
4 inst_102:A 0.0166
5 n8gat:1 0.0376
6 n8gat:2 0.0376
7 n8gat:3 0.0106
8 n8gat:4 0.0106
9 n8gat:5 0.1666
10 n8gat:6 0.1666
11 n8gat:7 0.1167
12 n8gat:8 0.0366
13 n8gat:9 0.0262
14 n8gat:10 0.0262
15 n8gat:11 0.1269
16 n8gat:12 0.0116
17 n8gat:13 0.0116
18 n8gat:14 0.1667
19 n8gat:15 0.1667
20 n8gat:16 0.0863
21 n8gat:17 0.0863
22 n8gat:18 0.0152
23 n8gat:19 0.0599
24 n8gat:20 0.0599
25 n8gat:21 0.0878
*RES
2 n8gat n8gat:11 0.0101
3 inst_23:A n8gat:18 0.0050
4 n8gat:1 inst_0:A 0.0050
5 n8gat:2 n8gat:1 0.0020
6 n8gat:3 n8gat:2 0.0050
7 n8gat:4 n8gat:3 0.0010
8 n8gat:5 n8gat:4 0.0050
9 n8gat:6 n8gat:5 0.0063
10 n8gat:7 n8gat:6 0.0050
11 n8gat:7 n8gat:8 0.0030
12 n8gat:8 n8gat:9 0.0050
13 n8gat:10 inst_102:A 0.0050
14 n8gat:10 n8gat:9 0.0015
15 n8gat:12 n8gat:11 0.0050
16 n8gat:12 n8gat:13 0.0010
17 n8gat:14 n8gat:13 0.0050
18 n8gat:14 n8gat:15 0.0067
19 n8gat:16 n8gat:15 0.0050
20 n8gat:16 n8gat:17 0.0097
21 n8gat:18 n8gat:17 0.0050
22 n8gat:19 inst_23:A 0.0050
23 n8gat:20 n8gat:19 0.0035
24 n8gat:21 n8gat:7 0.0099
25 n8gat:21 n8gat:20 0.0050
*END

*D_NET net_85 0.2924
*CONN
*I inst_122:ZN O
*I inst_119:A1 I
*CAP
1 inst_122:ZN 0.0166
2 inst_119:A1 0.0166
3 net_85:1 0.0393
4 net_85:2 0.0393
5 net_85:3 0.0583
6 net_85:4 0.0583
7 net_85:5 0.0339
8 net_85:6 0.0301
*RES
2 inst_119:A1 net_85:6 0.0050
3 net_85:1 inst_122:ZN 0.0050
4 net_85:2 net_85:1 0.0025
5 net_85:3 net_85:2 0.0050
6 net_85:3 net_85:4 0.0041
7 net_85:5 net_85:4 0.0050
8 net_85:6 net_85:5 0.0020
*END

*D_NET net_69 0.2913
*CONN
*I inst_61:ZN O
*I inst_64:B I
*CAP
1 inst_61:ZN 0.0076
2 inst_64:B 0.0166
3 net_69:1 0.0201
4 net_69:2 0.0152
5 net_69:3 0.0992
6 net_69:4 0.0992
7 net_69:5 0.0167
8 net_69:6 0.0167
*RES
2 inst_61:ZN net_69:1 0.0010
3 inst_64:B net_69:6 0.0050
4 net_69:2 net_69:1 0.0050
5 net_69:3 net_69:2 0.0050
6 net_69:3 net_69:4 0.0075
7 net_69:5 net_69:4 0.0050
8 net_69:6 net_69:5 0.0010
*END

*D_NET n225gat 0.8385
*CONN
*P n225gat I
*I inst_126:A1 I
*CAP
1 n225gat 0.0130
2 inst_126:A1 0.0166
3 n225gat:1 0.0206
4 n225gat:2 0.2028
5 n225gat:3 0.2028
6 n225gat:4 0.1913
7 n225gat:5 0.1913
*RES
2 n225gat n225gat:1 0.0010
3 inst_126:A1 n225gat:5 0.0050
4 n225gat:2 n225gat:1 0.0050
5 n225gat:2 n225gat:3 0.0197
6 n225gat:4 n225gat:3 0.0050
7 n225gat:4 n225gat:5 0.0155
*END

*D_NET net_124 0.1900
*CONN
*I inst_156:ZN O
*I inst_88:B I
*CAP
1 inst_156:ZN 0.0228
2 inst_88:B 0.0166
3 net_124:1 0.0152
4 net_124:2 0.0357
5 net_124:3 0.0357
6 net_124:4 0.0165
7 net_124:5 0.0165
8 net_124:6 0.0311
*RES
2 inst_156:ZN net_124:6 0.0031
3 net_124:1 inst_88:B 0.0050
4 net_124:2 net_124:1 0.0050
5 net_124:3 net_124:2 0.0027
6 net_124:4 net_124:3 0.0050
7 net_124:5 net_124:4 0.0010
8 net_124:6 net_124:5 0.0050
*END

*D_NET n57gat 2.4480
*CONN
*P n57gat I
*I inst_2:B I
*I inst_18:B I
*I inst_95:A I
*CAP
1 n57gat 0.0130
2 inst_2:B 0.0166
3 inst_18:B 0.0332
4 inst_95:A 0.0166
5 n57gat:1 0.0398
6 n57gat:2 0.1662
7 n57gat:3 0.1662
8 n57gat:4 0.0178
9 n57gat:5 0.0178
10 n57gat:6 0.0206
11 n57gat:7 0.0190