*SPEF "IEEE 1481-1998"
*DESIGN "changes"
*DATE "Tue Dec 02 18:58:52 2014"
*VENDOR "TAU 2015 Contest"
*PROGRAM "Benchmark Parasitic Generator"
*VERSION "0.0"
*DESIGN_FLOW "NETLIST_TYPE_VERILOG"
*DIVIDER /
*DELIMITER :
*BUS_DELIMITER [ ]
*T_UNIT 1 PS
*C_UNIT 1 FF
*R_UNIT 1 KOHM
*L_UNIT 1 UH

*D_NET n43gat 4.5250
*CONN
*I TAUGATE_116:Z O
*I inst_19:B I
*I inst_97:A I
*I inst_7:A I
*CAP
1 TAUGATE_116:Z 0.2611
2 n43gat:1 0.4098
3 n43gat:2 0.5009
4 n43gat:3 0.2843
5 inst_97:A 0.2878
6 n43gat:4 0.4685
7 n43gat:5 0.3070
8 n43gat:6 0.3583
9 inst_19:B 0.1395
10 n43gat:7 0.4644
11 n43gat:8 0.4559
12 n43gat:9 0.4050
13 n43gat:10 0.0154
14 inst_7:A 0.1670
*RES
2 TAUGATE_116:Z n43gat:1 0.1659
3 n43gat:1 n43gat:2 0.2742
4 n43gat:2 n43gat:3 0.3494
5 n43gat:3 inst_97:A 0.1485
6 n43gat:3 n43gat:4 0.0646
7 n43gat:4 n43gat:5 0.0794
8 n43gat:5 n43gat:6 0.2161
9 n43gat:6 inst_19:B 0.1614
10 n43gat:4 n43gat:7 0.1555
11 n43gat:7 n43gat:8 0.2440
12 n43gat:8 n43gat:9 0.0332
13 n43gat:9 n43gat:10 0.0406
14 n43gat:10 inst_7:A 0.2732
*END

*D_NET n190gat 3.1853
*CONN
*I TAUGATE_192:Z O
*I inst_76:A I
*I inst_3:A I
*I inst_4:B I
*CAP
1 TAUGATE_192:Z 0.1308
2 n190gat:1 0.2909
3 n190gat:2 0.3706
4 inst_76:A 0.0740
5 n190gat:3 0.2926
6 inst_3:A 0.4507
7 n190gat:4 0.3056
8 n190gat:5 0.3464
9 n190gat:6 0.0305
10 n190gat:7 0.2383
11 n190gat:8 0.4020
12 inst_4:B 0.2529
*RES
2 TAUGATE_192:Z n190gat:1 0.4871
3 n190gat:1 n190gat:2 0.4951
4 n190gat:2 inst_76:A 0.4125
5 n190gat:1 n190gat:3 0.3356
6 n190gat:3 inst_3:A 0.3995
7 n190gat:3 n190gat:4 0.2665
8 n190gat:4 n190gat:5 0.4354
9 n190gat:5 n190gat:6 0.1977
10 n190gat:6 n190gat:7 0.0788
11 n190gat:7 n190gat:8 0.3276
12 n190gat:8 inst_4:B 0.3833
*END

*D_NET net_47 0.8670
*CONN
*I TAUGATE_80:Z O
*I inst_69:A I
*CAP
1 TAUGATE_80:Z 0.0716
2 net_47:1 0.1922
3 net_47:2 0.2805
4 net_47:3 0.1322
5 inst_69:A 0.1905
*RES
2 TAUGATE_80:Z net_47:1 0.4017
3 net_47:1 net_47:2 0.4680
4 net_47:2 net_47:3 0.2976
5 net_47:3 inst_69:A 0.2331
*END

*D_NET TAUNET_275 1.3358
*CONN
*I inst_92:ZN O
*I TAUGATE_275:A I
*CAP
1 inst_92:ZN 0.3943
2 TAUNET_275:1 0.1955
3 TAUNET_275:2 0.1868
4 TAUNET_275:3 0.4889
5 TAUGATE_275:A 0.0703
*RES
2 inst_92:ZN TAUNET_275:1 0.3298
3 TAUNET_275:1 TAUNET_275:2 0.4131
4 TAUNET_275:2 TAUNET_275:3 0.3310
5 TAUNET_275:3 TAUGATE_275:A 0.2621
*END

*D_NET TAUNET_114 0.9833
*CONN
*I inst_118:ZN O
*I TAUGATE_114:A I
*CAP
1 inst_118:ZN 0.1808
2 TAUNET_114:1 0.3990
3 TAUGATE_114:A 0.4035
*RES
2 inst_118:ZN TAUNET_114:1 0.0219
3 TAUNET_114:1 TAUGATE_114:A 0.0830
*END

*D_NET net_54 3.2416
*CONN
*I TAUGATE_316:Z O
*I inst_55:A I
*I inst_50:A I
*CAP
1 TAUGATE_316:Z 0.1250
2 net_54:1 0.4976
3 net_54:2 0.3591
4 net_54:3 0.2780
5 net_54:4 0.2022
6 inst_50:A 0.1593
7 net_54:5 0.0632
8 net_54:6 0.2503
9 net_54:7 0.4700
10 net_54:8 0.3789
11 net_54:9 0.3545
12 inst_55:A 0.1033
*RES
2 TAUGATE_316:Z net_54:1 0.4382
3 net_54:1 net_54:2 0.3498
4 net_54:2 net_54:3 0.4055
5 net_54:3 net_54:4 0.4519
6 net_54:4 inst_50:A 0.4658
7 net_54:4 net_54:5 0.4316
8 net_54:5 net_54:6 0.1782
9 net_54:6 net_54:7 0.4734
10 net_54:7 net_54:8 0.0376
11 net_54:8 net_54:9 0.0972
12 net_54:9 inst_55:A 0.3594
*END

*D_NET TAUNET_232 1.4515
*CONN
*P n229gat I
*I TAUGATE_232:A I
*CAP
1 n229gat 0.3248
2 TAUNET_232:1 0.1267
3 TAUNET_232:2 0.3840
4 TAUNET_232:3 0.2434
5 TAUGATE_232:A 0.3726
*RES
2 n229gat TAUNET_232:1 0.2980
3 TAUNET_232:1 TAUNET_232:2 0.2454
4 TAUNET_232:2 TAUNET_232:3 0.4670
5 TAUNET_232:3 TAUGATE_232:A 0.1921
*END

*D_NET net_129 0.9538
*CONN
*I TAUGATE_96:Z O
*I inst_97:B I
*CAP
1 TAUGATE_96:Z 0.4443
2 net_129:1 0.3022
3 net_129:2 0.1405
4 inst_97:B 0.0668
*RES
2 TAUGATE_96:Z net_129:1 0.3699
3 net_129:1 net_129:2 0.4131
4 net_129:2 inst_97:B 0.4004
*END

*D_NET net_98 0.9952
*CONN
*I TAUGATE_328:Z O
*I inst_83:B I
*CAP
1 TAUGATE_328:Z 0.1341
2 net_98:1 0.0282
3 net_98:2 0.3089
4 net_98:3 0.0253
5 net_98:4 0.3105
6 inst_83:B 0.1881
*RES
2 TAUGATE_328:Z net_98:1 0.2034
3 net_98:1 net_98:2 0.1592
4 net_98:2 net_98:3 0.3147
5 net_98:3 net_98:4 0.2761
6 net_98:4 inst_83:B 0.3643
*END

*D_NET net_119 1.2795
*CONN
*I TAUGATE_91:Z O
*I inst_72:B I
*CAP
1 TAUGATE_91:Z 0.0666
2 net_119:1 0.3580
3 net_119:2 0.3774
4 net_119:3 0.2731
5 net_119:4 0.1525
6 inst_72:B 0.0518
*RES
2 TAUGATE_91:Z net_119:1 0.2548
3 net_119:1 net_119:2 0.2154
4 net_119:2 net_119:3 0.4921
5 net_119:3 net_119:4 0.1648
6 net_119:4 inst_72:B 0.1855
*END

*D_NET net_53 1.0916
*CONN
*I TAUGATE_101:Z O
*I inst_57:A I
*CAP
1 TAUGATE_101:Z 0.3530
2 net_53:1 0.2239
3 net_53:2 0.0917
4 inst_57:A 0.4230
*RES
2 TAUGATE_101:Z net_53:1 0.1494
3 net_53:1 net_53:2 0.3290
4 net_53:2 inst_57:A 0.1620
*END

*D_NET TAUNET_103 1.1549
*CONN
*P n85gat I
*I TAUGATE_103:A I
*CAP
1 n85gat 0.2883
2 TAUNET_103:1 0.4381
3 TAUNET_103:2 0.3484
4 TAUGATE_103:A 0.0801
*RES
2 n85gat TAUNET_103:1 0.1392
3 TAUNET_103:1 TAUNET_103:2 0.1891
4 TAUNET_103:2 TAUGATE_103:A 0.0464
*END

*D_NET TAUNET_177 1.0649
*CONN
*I TAUGATE_5:Z O
*I TAUGATE_177:A I
*CAP
1 TAUGATE_5:Z 0.0279
2 TAUNET_177:1 0.0649
3 TAUNET_177:2 0.0510
4 TAUNET_177:3 0.1600
5 TAUNET_177:4 0.1748
6 TAUNET_177:5 0.4787
7 TAUGATE_177:A 0.1076
*RES
2 TAUGATE_5:Z TAUNET_177:1 0.4606
3 TAUNET_177:1 TAUNET_177:2 0.3388
4 TAUNET_177:2 TAUNET_177:3 0.4657
5 TAUNET_177:3 TAUNET_177:4 0.3595
6 TAUNET_177:4 TAUNET_177:5 0.2471
7 TAUNET_177:5 TAUGATE_177:A 0.0832
*END

*D_NET TAUNET_31 0.8209
*CONN
*I TAUGATE_288:Z O
*I TAUGATE_31:A I
*CAP
1 TAUGATE_288:Z 0.3736
2 TAUNET_31:1 0.3644
3 TAUGATE_31:A 0.0829
*RES
2 TAUGATE_288:Z TAUNET_31:1 0.1977
3 TAUNET_31:1 TAUGATE_31:A 0.4694
*END

*D_NET TAUNET_91 2.0853
*CONN
*I TAUGATE_6:Z O
*I TAUGATE_91:A I
*CAP
1 TAUGATE_6:Z 0.3882
2 TAUNET_91:1 0.0413
3 TAUNET_91:2 0.4651
4 TAUNET_91:3 0.4065
5 TAUNET_91:4 0.3164
6 TAUNET_91:5 0.3513
7 TAUGATE_91:A 0.1165
*RES
2 TAUGATE_6:Z TAUNET_91:1 0.0986
3 TAUNET_91:1 TAUNET_91:2 0.2243
4 TAUNET_91:2 TAUNET_91:3 0.1286
5 TAUNET_91:3 TAUNET_91:4 0.4269
6 TAUNET_91:4 TAUNET_91:5 0.2482
7 TAUNET_91:5 TAUGATE_91:A 0.2195
*END

*D_NET TAUNET_208 1.7569
*CONN
*I inst_22:Z O
*I TAUGATE_208:A I
*CAP
1 inst_22:Z 0.4091
2 TAUNET_208:1 0.3587
3 TAUNET_208:2 0.1869
4 TAUNET_208:3 0.4974
5 TAUGATE_208:A 0.3047
*RES
2 inst_22:Z TAUNET_208:1 0.1200
3 TAUNET_208:1 TAUNET_208:2 0.4969
4 TAUNET_208:2 TAUNET_208:3 0.1210
5 TAUNET_208:3 TAUGATE_208:A 0.1733
*END

*D_NET TAUNET_9 1.1896
*CONN
*I TAUGATE_132:Z O
*I TAUGATE_9:A I
*CAP
1 TAUGATE_132:Z 0.0283
2 TAUNET_9:1 0.2945
3 TAUNET_9:2 0.3177
4 TAUNET_9:3 0.2101
5 TAUGATE_9:A 0.3390
*RES
2 TAUGATE_132:Z TAUNET_9:1 0.2046
3 TAUNET_9:1 TAUNET_9:2 0.3404
4 TAUNET_9:2 TAUNET_9:3 0.1317
5 TAUNET_9:3 TAUGATE_9:A 0.3617
*END

*D_NET TAUNET_128 1.2055
*CONN
*I inst_57:ZN O
*I TAUGATE_128:A I
*CAP
1 inst_57:ZN 0.3629
2 TAUNET_128:1 0.3900
3 TAUNET_128:2 0.0557
4 TAUNET_128:3 0.1253
5 TAUGATE_128:A 0.2716
*RES
2 inst_57:ZN TAUNET_128:1 0.3735
3 TAUNET_128:1 TAUNET_128:2 0.1079
4 TAUNET_128:2 TAUNET_128:3 0.3323
5 TAUNET_128:3 TAUGATE_128:A 0.2907
*END

*D_NET TAUNET_161 1.4383
*CONN
*I inst_98:ZN O
*I TAUGATE_161:A I
*CAP
1 inst_98:ZN 0.4966
2 TAUNET_161:1 0.2702
3 TAUNET_161:2 0.2135
4 TAUNET_161:3 0.0419
5 TAUNET_161:4 0.2773
6 TAUNET_161:5 0.0903
7 TAUGATE_161:A 0.0485
*RES
2 inst_98:ZN TAUNET_161:1 0.4602
3 TAUNET_161:1 TAUNET_161:2 0.4262
4 TAUNET_161:2 TAUNET_161:3 0.2009
5 TAUNET_161:3 TAUNET_161:4 0.3114
6 TAUNET_161:4 TAUNET_161:5 0.3090
7 TAUNET_161:5 TAUGATE_161:A 0.3972
*END

*D_NET TAUNET_249 1.1430
*CONN
*I inst_128:ZN O
*I TAUGATE_249:A I
*CAP
1 inst_128:ZN 0.2443
2 TAUNET_249:1 0.3734
3 TAUNET_249:2 0.1567
4 TAUNET_249:3 0.1247
5 TAUGATE_249:A 0.2439
*RES
2 inst_128:ZN TAUNET_249:1 0.2588
3 TAUNET_249:1 TAUNET_249:2 0.4474
4 TAUNET_249:2 TAUNET_249:3 0.3528
5 TAUNET_249:3 TAUGATE_249:A 0.0472
*END

*D_NET net_111 2.2648
*CONN
*I TAUGATE_179:Z O
*I inst_118:A1 I
*I inst_116:A1 I
*CAP
1 TAUGATE_179:Z 0.1981
2 net_111:1 0.0169
3 net_111:2 0.4026
4 net_111:3 0.4684
5 net_111:4 0.2490
6 inst_116:A1 0.0579
7 net_111:5 0.0209
8 net_111:6 0.4380
9 inst_118:A1 0.4130
*RES
2 TAUGATE_179:Z net_111:1 0.0423
3 net_111:1 net_111:2 0.2861
4 net_111:2 net_111:3 0.4278
5 net_111:3 net_111:4 0.3875
6 net_111:4 inst_116:A1 0.4796
7 net_111:4 net_111:5 0.4990
8 net_111:5 net_111:6 0.2134
9 net_111:6 inst_118:A1 0.1115
*END

*D_NET TAUNET_192 1.6629
*CONN
*P n190gat I
*I TAUGATE_192:A I
*CAP
1 n190gat 0.3666
2 TAUNET_192:1 0.4464
3 TAUNET_192:2 0.2438
4 TAUNET_192:3 0.2969
5 TAUGATE_192:A 0.3091
*RES
2 n190gat TAUNET_192:1 0.5006
3 TAUNET_192:1 TAUNET_192:2 0.2264
4 TAUNET_192:2 TAUNET_192:3 0.3973
5 TAUNET_192:3 TAUGATE_192:A 0.2044
*END

*D_NET TAUNET_151 1.5866
*CONN
*I inst_152:ZN O
*I TAUGATE_151:A I
*CAP
1 inst_152:ZN 0.3886
2 TAUNET_151:1 0.2468
3 TAUNET_151:2 0.4002
4 TAUNET_151:3 0.3652
5 TAUGATE_151:A 0.1857
*RES
2 inst_152:ZN TAUNET_151:1 0.0562
3 TAUNET_151:1 TAUNET_151:2 0.0882
4 TAUNET_151:2 TAUNET_151:3 0.4386
5 TAUNET_151:3 TAUGATE_151:A 0.2715
*END

*D_NET net_90 2.2528
*CONN
*I TAUGATE_85:Z O
*I inst_138:A2 I
*I inst_139:A2 I
*CAP
1 TAUGATE_85:Z 0.4145
2 net_90:1 0.1130
3 net_90:2 0.1026
4 inst_138:A2 0.1939
5 net_90:3 0.1138
6 net_90:4 0.4033
7 net_90:5 0.3663
8 net_90:6 0.2540
9 net_90:7 0.0526
10 inst_139:A2 0.2388
*RES
2 TAUGATE_85:Z net_90:1 0.1095
3 net_90:1 net_90:2 0.0212
4 net_90:2 inst_138:A2 0.1417
5 net_90:1 net_90:3 0.1787
6 net_90:3 net_90:4 0.3603
7 net_90:4 net_90:5 0.0603
8 net_90:5 net_90:6 0.0863
9 net_90:6 net_90:7 0.3102
10 net_90:7 inst_139:A2 0.1239
*END

*D_NET TAUNET_141 1.6234
*CONN
*I inst_12:Z O
*I TAUGATE_141:A I
*CAP
1 inst_12:Z 0.0055
2 TAUNET_141:1 0.2412
3 TAUNET_141:2 0.3995
4 TAUNET_141:3 0.4441
5 TAUNET_141:4 0.4218
6 TAUNET_141:5 0.0848
7 TAUGATE_141:A 0.0266
*RES
2 inst_12:Z TAUNET_141:1 0.0274
3 TAUNET_141:1 TAUNET_141:2 0.4218
4 TAUNET_141:2 TAUNET_141:3 0.2061
5 TAUNET_141:3 TAUNET_141:4 0.2110
6 TAUNET_141:4 TAUNET_141:5 0.4583
7 TAUNET_141:5 TAUGATE_141:A 0.3985
*END

*D_NET net_85 1.9898
*CONN
*I TAUGATE_290:Z O
*I inst_119:A1 I
*CAP
1 TAUGATE_290:Z 0.0725
2 net_85:1 0.3124
3 net_85:2 0.3685
4 net_85:3 0.4317
5 net_85:4 0.1801
6 net_85:5 0.2826
7 inst_119:A1 0.3420
*RES
2 TAUGATE_290:Z net_85:1 0.0965
3 net_85:1 net_85:2 0.2555
4 net_85:2 net_85:3 0.1304
5 net_85:3 net_85:4 0.3675
6 net_85:4 net_85:5 0.4634
7 net_85:5 inst_119:A1 0.2869
*END

*D_NET net_124 0.5511
*CONN
*I TAUGATE_95:Z O
*I inst_88:B I
*CAP
1 TAUGATE_95:Z 0.1182
2 net_124:1 0.0608
3 inst_88:B 0.3721
*RES
2 TAUGATE_95:Z net_124:1 0.4648
3 net_124:1 inst_88:B 0.2376
*END

*D_NET TAUNET_201 0.8353
*CONN
*I inst_59:ZN O
*I TAUGATE_201:A I
*CAP
1 inst_59:ZN 0.3081
2 TAUNET_201:1 0.0264
3 TAUNET_201:2 0.2502
4 TAUGATE_201:A 0.2506
*RES
2 inst_59:ZN TAUNET_201:1 0.4486
3 TAUNET_201:1 TAUNET_201:2 0.0641
4 TAUNET_201:2 TAUGATE_201:A 0.0138
*END

*D_NET TAUNET_87 0.7959
*CONN
*P n211gat I
*I TAUGATE_87:A I
*CAP
1 n211gat 0.0204
2 TAUNET_87:1 0.1001
3 TAUNET_87:2 0.2747
4 TAUNET_87:3 0.1704
5 TAUGATE_87:A 0.2303
*RES
2 n211gat TAUNET_87:1 0.0121
3 TAUNET_87:1 TAUNET_87:2 0.0620
4 TAUNET_87:2 TAUNET_87:3 0.0267
5 TAUNET_87:3 TAUGATE_87:A 0.1278
*END

*D_NET TAUNET_72 1.5058
*CONN
*I TAUGATE_57:Z O
*I TAUGATE_72:A I
*CAP
1 TAUGATE_57:Z 0.3621
2 TAUNET_72:1 0.3490
3 TAUNET_72:2 0.4751
4 TAUGATE_72:A 0.3195
*RES
2 TAUGATE_57:Z TAUNET_72:1 0.4748
3 TAUNET_72:1 TAUNET_72:2 0.2505
4 TAUNET_72:2 TAUGATE_72:A 0.2036
*END

*D_NET net_4 1.2849
*CONN
*I TAUGATE_225:Z O
*I inst_57:B I
*CAP
1 TAUGATE_225:Z 0.0185
2 net_4:1 0.2437
3 net_4:2 0.3641
4 net_4:3 0.1411
5 net_4:4 0.2452
6 inst_57:B 0.2723
*RES
2 TAUGATE_225:Z net_4:1 0.2079
3 net_4:1 net_4:2 0.2449
4 net_4:2 net_4:3 0.0406
5 net_4:3 net_4:4 0.0917
6 net_4:4 inst_57:B 0.0078
*END

*D_NET TAUNET_134 0.3723
*CONN
*I inst_90:ZN O
*I TAUGATE_134:A I
*CAP
1 inst_90:ZN 0.0264
2 TAUNET_134:1 0.1906
3 TAUGATE_134:A 0.1553
*RES
2 inst_90:ZN TAUNET_134:1 0.0937
3 TAUNET_134:1 TAUGATE_134:A 0.2944
*END

*D_NET TAUNET_284 0.9828
*CONN
*I inst_113:ZN O
*I TAUGATE_284:A I
*CAP
1 inst_113:ZN 0.0209
2 TAUNET_284:1 0.1067
3 TAUNET_284:2 0.4881
4 TAUGATE_284:A 0.3672
*RES
2 inst_113:ZN TAUNET_284:1 0.4629
3 TAUNET_284:1 TAUNET_284:2 0.1157
4 TAUNET_284:2 TAUGATE_284:A 0.1901
*END

*D_NET TAUNET_267 1.4760
*CONN
*P n50gat I
*I TAUGATE_267:A I
*CAP
1 n50gat 0.5008
2 TAUNET_267:1 0.3428
3 TAUNET_267:2 0.2325
4 TAUNET_267:3 0.2733
5 TAUGATE_267:A 0.1266
*RES
2 n50gat TAUNET_267:1 0.3814
3 TAUNET_267:1 TAUNET_267:2 0.1363
4 TAUNET_267:2 TAUNET_267:3 0.3277
5 TAUNET_267:3 TAUGATE_267:A 0.3144
*END

*D_NET TAUNET_44 1.3785
*CONN
*I TAUGATE_130:Z O
*I TAUGATE_44:A I
*CAP
1 TAUGATE_130:Z 0.3676
2 TAUNET_44:1 0.4423
3 TAUNET_44:2 0.1159
4 TAUGATE_44:A 0.4527
*RES
2 TAUGATE_130:Z TAUNET_44:1 0.1465
3 TAUNET_44:1 TAUNET_44:2 0.1463
4 TAUNET_44:2 TAUGATE_44:A 0.4621
*END

*D_NET TAUNET_207 0.8463
*CONN
*I TAUGATE_38:Z O
*I TAUGATE_207:A I
*CAP
1 TAUGATE_38:Z 0.0227
2 TAUNET_207:1 0.4114
3 TAUNET_207:2 0.0715
4 TAUNET_207:3 0.1546
5 TAUGATE_207:A 0.1861
*RES
2 TAUGATE_38:Z TAUNET_207:1 0.4367
3 TAUNET_207:1 TAUNET_207:2 0.3452
4 TAUNET_207:2 TAUNET_207:3 0.0313
5 TAUNET_207:3 TAUGATE_207:A 0.1217
*END

*D_NET net_35 0.7321
*CONN
*I TAUGATE_118:Z O
*I inst_32:A I
*CAP
1 TAUGATE_118:Z 0.1222
2 net_35:1 0.1692
3 inst_32:A 0.4407
*RES
2 TAUGATE_118:Z net_35:1 0.4978
3 net_35:1 inst_32:A 0.2563
*END

*D_NET net_16 1.2175
*CONN
*I TAUGATE_308:Z O
*I inst_45:B I
*CAP
1 TAUGATE_308:Z 0.2603
2 net_16:1 0.3072
3 net_16:2 0.2768
4 net_16:3 0.1679
5 inst_45:B 0.2053
*RES
2 TAUGATE_308:Z net_16:1 0.2140
3 net_16:1 net_16:2 0.3306
4 net_16:2 net_16:3 0.1569
5 net_16:3 inst_45:B 0.2580
*END

*D_NET TAUNET_56 2.4397
*CONN
*I TAUGATE_270:Z O
*I TAUGATE_56:A I
*CAP
1 TAUGATE_270:Z 0.4796
2 TAUNET_56:1 0.4946
3 TAUNET_56:2 0.4608
4 TAUNET_56:3 0.4692
5 TAUNET_56:4 0.4766
6 TAUGATE_56:A 0.0589
*RES
2 TAUGATE_270:Z TAUNET_56:1 0.0962
3 TAUNET_56:1 TAUNET_56:2 0.2415
4 TAUNET_56:2 TAUNET_56:3 0.1750
5 TAUNET_56:3 TAUNET_56:4 0.4103
6 TAUNET_56:4 TAUGATE_56:A 0.0845
*END

*D_NET net_120 3.9946
*CONN
*I TAUGATE_97:Z O
*I inst_153:A2 I
*I inst_155:A2 I
*I inst_152:A2 I
*I inst_149:A2 I
*CAP
1 TAUGATE_97:Z 0.1436
2 net_120:1 0.4748
3 net_120:2 0.0806
4 inst_155:A2 0.0407
5 net_120:3 0.2640
6 net_120:4 0.1831
7 net_120:5 0.4110
8 inst_153:A2 0.0191
9 net_120:6 0.5010
10 net_120:7 0.3538
11 net_120:8 0.4649
12 net_120:9 0.0482
13 net_120:10 0.1062
14 inst_152:A2 0.2963
15 net_120:11 0.1738
16 inst_149:A2 0.4336
*RES
2 TAUGATE_97:Z net_120:1 0.2069
3 net_120:1 net_120:2 0.0491
4 net_120:2 inst_155:A2 0.4137
5 net_120:2 net_120:3 0.3538
6 net_120:3 net_120:4 0.4300
7 net_120:4 net_120:5 0.3629
8 net_120:5 inst_153:A2 0.0787
9 net_120:3 net_120:6 0.4911
10 net_120:6 net_120:7 0.2002
11 net_120:7 net_120:8 0.2573
12 net_120:8 net_120:9 0.3761
13 net_120:9 net_120:10 0.0616
14 net_120:10 inst_152:A2 0.4298
15 net_120:1 net_120:11 0.4556
16 net_120:11 inst_149:A2 0.1284
*END

*D_NET TAUNET_142 1.6488
*CONN
*I inst_157:ZN O
*I TAUGATE_142:A I
*CAP
1 inst_157:ZN 0.1731
2 TAUNET_142:1 0.3095
3 TAUNET_142:2 0.4895
4 TAUNET_142:3 0.4033
5 TAUGATE_142:A 0.2734
*RES
2 inst_157:ZN TAUNET_142:1 0.3461
3 TAUNET_142:1 TAUNET_142:2 0.3729
4 TAUNET_142:2 TAUNET_142:3 0.0418
5 TAUNET_142:3 TAUGATE_142:A 0.3671
*END

*D_NET TAUNET_211 1.1766
*CONN
*I TAUGATE_1:Z O
*I TAUGATE_211:A I
*CAP
1 TAUGATE_1:Z 0.1458
2 TAUNET_211:1 0.0683
3 TAUNET_211:2 0.2135
4 TAUNET_211:3 0.4484
5 TAUNET_211:4 0.1379
6 TAUNET_211:5 0.1139
7 TAUGATE_211:A 0.0489
*RES
2 TAUGATE_1:Z TAUNET_211:1 0.0861
3 TAUNET_211:1 TAUNET_211:2 0.1477
4 TAUNET_211:2 TAUNET_211:3 0.4806
5 TAUNET_211:3 TAUNET_211:4 0.3473
6 TAUNET_211:4 TAUNET_211:5 0.1114
7 TAUNET_211:5 TAUGATE_211:A 0.0198
*END

*D_NET TAUNET_221 1.3546
*CONN
*I inst_114:ZN O
*I TAUGATE_221:A I
*CAP
1 inst_114:ZN 0.1100
2 TAUNET_221:1 0.3290
3 TAUNET_221:2 0.1592
4 TAUNET_221:3 0.4236
5 TAUGATE_221:A 0.3328
*RES
2 inst_114:ZN TAUNET_221:1 0.1906
3 TAUNET_221:1 TAUNET_221:2 0.5003
4 TAUNET_221:2 TAUNET_221:3 0.4347
5 TAUNET_221:3 TAUGATE_221:A 0.3044
*END

*D_NET net_109 1.5228
*CONN
*I TAUGATE_82:Z O
*I inst_82:B I
*CAP
1 TAUGATE_82:Z 0.0096
2 net_109:1 0.2377
3 net_109:2 0.2571
4 net_109:3 0.3610
5 net_109:4 0.0042
6 net_109:5 0.2690
7 inst_82:B 0.3841
*RES
2 TAUGATE_82:Z net_109:1 0.3400
3 net_109:1 net_109:2 0.2352
4 net_109:2 net_109:3 0.3112
5 net_109:3 net_109:4 0.1345
6 net_109:4 net_109:5 0.4134
7 net_109:5 inst_82:B 0.0741
*END

*D_NET net_80 1.5369
*CONN
*I TAUGATE_69:Z O
*I inst_122:A3 I
*I inst_120:A3 I
*CAP
1 TAUGATE_69:Z 0.4891
2 net_80:1 0.2122
3 inst_120:A3 0.2034
4 net_80:2 0.0283
5 net_80:3 0.2644
6 inst_122:A3 0.3395
*RES
2 TAUGATE_69:Z net_80:1 0.1253
3 net_80:1 inst_120:A3 0.2112
4 net_80:1 net_80:2 0.4160
5 net_80:2 net_80:3 0.1311
6 net_80:3 inst_122:A3 0.1702
*END

*D_NET net_65 0.8144
*CONN
*I TAUGATE_72:Z O
*I inst_69:B I
*CAP
1 TAUGATE_72:Z 0.0383
2 net_65:1 0.2177
3 net_65:2 0.0520
4 net_65:3 0.1787
5 inst_69:B 0.3277
*RES
2 TAUGATE_72:Z net_65:1 0.2308
3 net_65:1 net_65:2 0.1825
4 net_65:2 net_65:3 0.4154
5 net_65:3 inst_69:B 0.4205
*END

*D_NET TAUNET_81 0.9305
*CONN
*I inst_50:ZN O
*I TAUGATE_81:A I
*CAP
1 inst_50:ZN 0.3303
2 TAUNET_81:1 0.3450
3 TAUGATE_81:A 0.2552
*RES
2 inst_50:ZN TAUNET_81:1 0.2397
3 TAUNET_81:1 TAUGATE_81:A 0.3943
*END

*D_NET TAUNET_189 1.1705
*CONN
*I inst_47:ZN O
*I TAUGATE_189:A I
*CAP
1 inst_47:ZN 0.3586
2 TAUNET_189:1 0.2132
3 TAUNET_189:2 0.3448
4 TAUGATE_189:A 0.2539
*RES
2 inst_47:ZN TAUNET_189:1 0.0169
3 TAUNET_189:1 TAUNET_189:2 0.2910
4 TAUNET_189:2 TAUGATE_189:A 0.3418
*END

*D_NET TAUNET_154 1.0972
*CONN
*I inst_155:ZN O
*I TAUGATE_154:A I
*CAP
1 inst_155:ZN 0.2232
2 TAUNET_154:1 0.3825
3 TAUGATE_154:A 0.4916
*RES
2 inst_155:ZN TAUNET_154:1 0.0258
3 TAUNET_154:1 TAUGATE_154:A 0.0722
*END

*D_NET net_96 0.1761
*CONN
*I TAUGATE_75:Z O
*I inst_79:B I
*CAP
1 TAUGATE_75:Z 0.0274
2 net_96:1 0.0758
3 inst_79:B 0.0730
*RES
2 TAUGATE_75:Z net_96:1 0.2996
3 net_96:1 inst_79:B 0.1500
*END

*D_NET net_136 7.1944
*CONN
*I TAUGATE_108:Z O
*I inst_160:A1 I
*I inst_157:A1 I
*I inst_105:A2 I
*I inst_136:A1 I
*I inst_165:A1 I
*I inst_168:A1 I
*I inst_106:A2 I
*CAP
1 TAUGATE_108:Z 0.0605
2 net_136:1 0.4347
3 net_136:2 0.2976
4 inst_136:A1 0.3531
5 net_136:3 0.2983
6 net_136:4 0.4269
7 net_136:5 0.0493
8 net_136:6 0.0341
9 inst_157:A1 0.3020
10 net_136:7 0.3051
11 inst_105:A2 0.1197
12 net_136:8 0.3150
13 net_136:9 0.0137
14 net_136:10 0.2108
15 inst_160:A1 0.3101
16 net_136:11 0.3768
17 net_136:12 0.3083
18 net_136:13 0.1250
19 inst_165:A1 0.3526
20 net_136:14 0.2418
21 net_136:15 0.4080
22 net_136:16 0.3118
23 net_136:17 0.4981
24 net_136:18 0.3134
25 inst_168:A1 0.4059
26 net_136:19 0.0712
27 net_136:20 0.0044
28 net_136:21 0.1986
29 inst_106:A2 0.0476
*RES
2 TAUGATE_108:Z net_136:1 0.0316
3 net_136:1 net_136:2 0.1823
4 net_136:2 inst_136:A1 0.0755
5 net_136:2 net_136:3 0.3389
6 net_136:3 net_136:4 0.4000
7 net_136:4 net_136:5 0.0188
8 net_136:5 net_136:6 0.4709
9 net_136:6 inst_157:A1 0.4204
10 net_136:3 net_136:7 0.2956
11 net_136:7 inst_105:A2 0.2210
12 net_136:2 net_136:8 0.0161
13 net_136:8 net_136:9 0.2047
14 net_136:9 net_136:10 0.3729
15 net_136:10 inst_160:A1 0.0610
16 net_136:8 net_136:11 0.3715
17 net_136:11 net_136:12 0.3144
18 net_136:12 net_136:13 0.3618
19 net_136:13 inst_165:A1 0.0820
20 net_136:10 net_136:14 0.1396
21 net_136:14 net_136:15 0.0910
22 net_136:15 net_136:16 0.1278
23 net_136:16 net_136:17 0.3093
24 net_136:17 net_136:18 0.3342
25 net_136:18 inst_168:A1 0.2150
26 net_136:7 net_136:19 0.0521
27 net_136:19 net_136:20 0.0546
28 net_136:20 net_136:21 0.0043
29 net_136:21 inst_106:A2 0.2737
*END

*D_NET TAUNET_15 1.2711
*CONN
*I TAUGATE_126:Z O
*I TAUGATE_15:A I
*CAP
1 TAUGATE_126:Z 0.2677
2 TAUNET_15:1 0.1466
3 TAUNET_15:2 0.2784
4 TAUNET_15:3 0.2008
5 TAUGATE_15:A 0.3776
*RES
2 TAUGATE_126:Z TAUNET_15:1 0.2937
3 TAUNET_15:1 TAUNET_15:2 0.0093
4 TAUNET_15:2 TAUNET_15:3 0.2822
5 TAUNET_15:3 TAUGATE_15:A 0.4311
*END

*D_NET TAUNET_182 1.6512
*CONN
*I inst_104:ZN O
*I TAUGATE_182:A I
*CAP
1 inst_104:ZN 0.1138
2 TAUNET_182:1 0.3567
3 TAUNET_182:2 0.3242
4 TAUNET_182:3 0.2336
5 TAUNET_182:4 0.3863
6 TAUGATE_182:A 0.2365
*RES
2 inst_104:ZN TAUNET_182:1 0.1037
3 TAUNET_182:1 TAUNET_182:2 0.3572
4 TAUNET_182:2 TAUNET_182:3 0.2211
5 TAUNET_182:3 TAUNET_182:4 0.2185
6 TAUNET_182:4 TAUGATE_182:A 0.2266
*END

*D_NET net_126 1.9002
*CONN
*I TAUGATE_67:Z O
*I inst_96:B I
*CAP
1 TAUGATE_67:Z 0.1297
2 net_126:1 0.2417
3 net_126:2 0.2444
4 net_126:3 0.4262
5 net_126:4 0.3737
6 net_126:5 0.3015
7 inst_96:B 0.1830
*RES
2 TAUGATE_67:Z net_126:1 0.3035
3 net_126:1 net_126:2 0.4053
4 net_126:2 net_126:3 0.0863
5 net_126:3 net_126:4 0.2362
6 net_126:4 net_126:5 0.1365
7 net_126:5 inst_96:B 0.0277
*END

*D_NET TAUNET_303 0.8486
*CONN
*P n226gat I
*I TAUGATE_303:A I
*CAP
1 n226gat 0.2912
2 TAUNET_303:1 0.3711
3 TAUNET_303:2 0.0512
4 TAUGATE_303:A 0.1351
*RES
2 n226gat TAUNET_303:1 0.0984
3 TAUNET_303:1 TAUNET_303:2 0.0368
4 TAUNET_303:2 TAUGATE_303:A 0.4376
*END

*D_NET net_34 1.3959
*CONN
*I TAUGATE_193:Z O
*I inst_38:A I
*CAP
1 TAUGATE_193:Z 0.1283
2 net_34:1 0.3234
3 net_34:2 0.4610
4 inst_38:A 0.4832
*RES
2 TAUGATE_193:Z net_34:1 0.2776
3 net_34:1 net_34:2 0.3781
4 net_34:2 inst_38:A 0.3766
*END

*D_NET net_108 1.4006
*CONN
*I TAUGATE_168:Z O
*I inst_81:B I
*CAP
1 TAUGATE_168:Z 0.3877
2 net_108:1 0.3738
3 net_108:2 0.4556
4 inst_81:B 0.1835
*RES
2 TAUGATE_168:Z net_108:1 0.0020
3 net_108:1 net_108:2 0.2614
4 net_108:2 inst_81:B 0.3010
*END

*D_NET TAUNET_53 1.0435
*CONN
*I TAUGATE_167:Z O
*I TAUGATE_53:A I
*CAP
1 TAUGATE_167:Z 0.4372
2 TAUNET_53:1 0.1153
3 TAUNET_53:2 0.3810
4 TAUGATE_53:A 0.1100
*RES
2 TAUGATE_167:Z TAUNET_53:1 0.1662
3 TAUNET_53:1 TAUNET_53:2 0.3178
4 TAUNET_53:2 TAUGATE_53:A 0.2541
*END

*D_NET TAUNET_2 1.5558
*CONN
*I TAUGATE_65:Z O
*I TAUGATE_2:A I
*CAP
1 TAUGATE_65:Z 0.4625
2 TAUNET_2:1 0.0981
3 TAUNET_2:2 0.3461
4 TAUNET_2:3 0.2382
5 TAUGATE_2:A 0.4109
*RES
2 TAUGATE_65:Z TAUNET_2:1 0.0945
3 TAUNET_2:1 TAUNET_2:2 0.2326
4 TAUNET_2:2 TAUNET_2:3 0.0121
5 TAUNET_2:3 TAUGATE_2:A 0.2674
*END

*D_NET n50gat 2.9150
*CONN
*I TAUGATE_66:Z O
*I inst_19:A I
*I inst_17:A I
*I inst_96:A I
*CAP
1 TAUGATE_66:Z 0.0414
2 n50gat:1 0.1970
3 n50gat:2 0.0138
4 n50gat:3 0.4527
5 inst_17:A 0.3131
6 n50gat:4 0.3736
7 n50gat:5 0.3306
8 n50gat:6 0.3042
9 n50gat:7 0.1317
10 n50gat:8 0.1481
11 inst_19:A 0.2485
12 n50gat:9 0.0047
13 n50gat:10 0.1418
14 inst_96:A 0.2138
*RES
2 TAUGATE_66:Z n50gat:1 0.4392
3 n50gat:1 n50gat:2 0.4048
4 n50gat:2 n50gat:3 0.0368
5 n50gat:3 inst_17:A 0.3283
6 n50gat:2 n50gat:4 0.2201
7 n50gat:4 n50gat:5 0.2966
8 n50gat:5 n50gat:6 0.3013
9 n50gat:6 n50gat:7 0.0758
10 n50gat:7 n50gat:8 0.0262
11 n50gat:8 inst_19:A 0.3812
12 n50gat:1 n50gat:9 0.3805
13 n50gat:9 n50gat:10 0.2523
14 n50gat:10 inst_96:A 0.0497
*END

*D_NET TAUNET_194 1.3598
*CONN
*I inst_48:ZN O
*I TAUGATE_194:A I
*CAP
1 inst_48:ZN 0.3913
2 TAUNET_194:1 0.3201
3 TAUNET_194:2 0.0320
4 TAUNET_194:3 0.2786
5 TAUGATE_194:A 0.3378
*RES
2 inst_48:ZN TAUNET_194:1 0.4364
3 TAUNET_194:1 TAUNET_194:2 0.2454
4 TAUNET_194:2 TAUNET_194:3 0.4527
5 TAUNET_194:3 TAUGATE_194:A 0.2663
*END

*D_NET net_63 1.5865
*CONN
*I TAUGATE_83:Z O
*I inst_62:A I
*CAP
1 TAUGATE_83:Z 0.1740
2 net_63:1 0.3351
3 net_63:2 0.4105
4 net_63:3 0.3004
5 inst_62:A 0.3665
*RES
2 TAUGATE_83:Z net_63:1 0.1341
3 net_63:1 net_63:2 0.0859
4 net_63:2 net_63:3 0.1706
5 net_63:3 inst_62:A 0.3812
*END

*D_NET TAUNET_233 0.4838
*CONN
*P n8gat I
*I TAUGATE_233:A I
*CAP
1 n8gat 0.1227
2 TAUNET_233:1 0.0059
3 TAUGATE_233:A 0.3552
*RES
2 n8gat TAUNET_233:1 0.3839
3 TAUNET_233:1 TAUGATE_233:A 0.1840
*END

*D_NET TAUNET_4 2.5126
*CONN
*I TAUGATE_234:Z O
*I TAUGATE_4:A I
*CAP
1 TAUGATE_234:Z 0.3573
2 TAUNET_4:1 0.3575
3 TAUNET_4:2 0.1715
4 TAUNET_4:3 0.3050
5 TAUNET_4:4 0.3594
6 TAUNET_4:5 0.4902
7 TAUGATE_4:A 0.4716
*RES
2 TAUGATE_234:Z TAUNET_4:1 0.2112
3 TAUNET_4:1 TAUNET_4:2 0.1762
4 TAUNET_4:2 TAUNET_4:3 0.1166
5 TAUNET_4:3 TAUNET_4:4 0.1660
6 TAUNET_4:4 TAUNET_4:5 0.2177
7 TAUNET_4:5 TAUGATE_4:A 0.2908
*END

*D_NET TAUNET_283 1.2533
*CONN
*P n162gat I
*I TAUGATE_283:A I
*CAP
1 n162gat 0.3308
2 TAUNET_283:1 0.4669
3 TAUNET_283:2 0.1932
4 TAUNET_283:3 0.0675
5 TAUNET_283:4 0.0053
6 TAUNET_283:5 0.1459
7 TAUGATE_283:A 0.0437
*RES
2 n162gat TAUNET_283:1 0.4598
3 TAUNET_283:1 TAUNET_283:2 0.3838
4 TAUNET_283:2 TAUNET_283:3 0.2033
5 TAUNET_283:3 TAUNET_283:4 0.3263
6 TAUNET_283:4 TAUNET_283:5 0.4574
7 TAUNET_283:5 TAUGATE_283:A 0.4683
*END

*D_NET TAUNET_155 1.4761
*CONN
*I inst_4:Z O
*I TAUGATE_155:A I
*CAP
1 inst_4:Z 0.4873
2 TAUNET_155:1 0.4800
3 TAUNET_155:2 0.4518
4 TAUGATE_155:A 0.0570
*RES
2 inst_4:Z TAUNET_155:1 0.4909
3 TAUNET_155:1 TAUNET_155:2 0.0572
4 TAUNET_155:2 TAUGATE_155:A 0.5008
*END

*D_NET TAUNET_234 2.4403
*CONN
*I inst_6:Z O
*I TAUGATE_234:A I
*CAP
1 inst_6:Z 0.2457
2 TAUNET_234:1 0.2594
3 TAUNET_234:2 0.3565
4 TAUNET_234:3 0.4074
5 TAUNET_234:4 0.4309
6 TAUNET_234:5 0.4474
7 TAUGATE_234:A 0.2931
*RES
2 inst_6:Z TAUNET_234:1 0.2848
3 TAUNET_234:1 TAUNET_234:2 0.2246
4 TAUNET_234:2 TAUNET_234:3 0.3320
5 TAUNET_234:3 TAUNET_234:4 0.3870
6 TAUNET_234:4 TAUNET_234:5 0.3663
7 TAUNET_234:5 TAUGATE_234:A 0.1512
*END

*D_NET TAUNET_209 2.3961
*CONN
*I inst_144:ZN O
*I TAUGATE_209:A I
*CAP
1 inst_144:ZN 0.4493
2 TAUNET_209:1 0.2866
3 TAUNET_209:2 0.1873
4 TAUNET_209:3 0.1599
5 TAUNET_209:4 0.3589
6 TAUNET_209:5 0.4697
7 TAUGATE_209:A 0.4844
*RES
2 inst_144:ZN TAUNET_209:1 0.0401
3 TAUNET_209:1 TAUNET_209:2 0.2861
4 TAUNET_209:2 TAUNET_209:3 0.1883
5 TAUNET_209:3 TAUNET_209:4 0.3075
6 TAUNET_209:4 TAUNET_209:5 0.0604
7 TAUNET_209:5 TAUGATE_209:A 0.3908
*END

*D_NET net_99 1.2659
*CONN
*I TAUGATE_106:Z O
*I inst_118:A2 I
*I inst_115:A2 I
*CAP
1 TAUGATE_106:Z 0.4162
2 net_99:1 0.0491
3 net_99:2 0.3511
4 inst_115:A2 0.2111
5 net_99:3 0.2365
6 inst_118:A2 0.0021
*RES
2 TAUGATE_106:Z net_99:1 0.3010
3 net_99:1 net_99:2 0.1515
4 net_99:2 inst_115:A2 0.0492
5 net_99:2 net_99:3 0.2080
6 net_99:3 inst_118:A2 0.3529
*END

*D_NET net_46 1.9943
*CONN
*I TAUGATE_164:Z O
*I inst_66:A I
*CAP
1 TAUGATE_164:Z 0.3648
2 net_46:1 0.3187
3 net_46:2 0.4272
4 net_46:3 0.0224
5 net_46:4 0.4026
6 net_46:5 0.2784
7 inst_66:A 0.1803
*RES
2 TAUGATE_164:Z net_46:1 0.0882
3 net_46:1 net_46:2 0.2924
4 net_46:2 net_46:3 0.4780
5 net_46:3 net_46:4 0.3510
6 net_46:4 net_46:5 0.1182
7 net_46:5 inst_66:A 0.2614
*END

*D_NET TAUNET_130 2.0123
*CONN
*I inst_110:ZN O
*I TAUGATE_130:A I
*CAP
1 inst_110:ZN 0.2582
2 TAUNET_130:1 0.0762
3 TAUNET_130:2 0.1986
4 TAUNET_130:3 0.3922
5 TAUNET_130:4 0.3950
6 TAUNET_130:5 0.2666
7 TAUGATE_130:A 0.4255
*RES
2 inst_110:ZN TAUNET_130:1 0.4671
3 TAUNET_130:1 TAUNET_130:2 0.2972
4 TAUNET_130:2 TAUNET_130:3 0.3936
5 TAUNET_130:3 TAUNET_130:4 0.4880
6 TAUNET_130:4 TAUNET_130:5 0.4169
7 TAUNET_130:5 TAUGATE_130:A 0.3167
*END

*D_NET TAUNET_276 1.2435
*CONN
*I inst_9:Z O
*I TAUGATE_276:A I
*CAP
1 inst_9:Z 0.1073
2 TAUNET_276:1 0.1300
3 TAUNET_276:2 0.3795
4 TAUNET_276:3 0.2362
5 TAUNET_276:4 0.1908
6 TAUGATE_276:A 0.1996
*RES
2 inst_9:Z TAUNET_276:1 0.3123
3 TAUNET_276:1 TAUNET_276:2 0.1251
4 TAUNET_276:2 TAUNET_276:3 0.0048
5 TAUNET_276:3 TAUNET_276:4 0.3126
6 TAUNET_276:4 TAUGATE_276:A 0.0195
*END

*D_NET TAUNET_248 1.8169
*CONN
*I TAUGATE_28:Z O
*I TAUGATE_248:A I
*CAP
1 TAUGATE_28:Z 0.3700
2 TAUNET_248:1 0.3466
3 TAUNET_248:2 0.4948
4 TAUNET_248:3 0.4038
5 TAUNET_248:4 0.1954
6 TAUGATE_248:A 0.0063
*RES
2 TAUGATE_28:Z TAUNET_248:1 0.4904
3 TAUNET_248:1 TAUNET_248:2 0.0915
4 TAUNET_248:2 TAUNET_248:3 0.4619
5 TAUNET_248:3 TAUNET_248:4 0.1065
6 TAUNET_248:4 TAUGATE_248:A 0.1990
*END

*D_NET TAUNET_250 0.5577
*CONN
*I inst_61:ZN O
*I TAUGATE_250:A I
*CAP
1 inst_61:ZN 0.0690
2 TAUNET_250:1 0.2934
3 TAUNET_250:2 0.0661
4 TAUNET_250:3 0.0281
5 TAUGATE_250:A 0.1011
*RES
2 inst_61:ZN TAUNET_250:1 0.2539
3 TAUNET_250:1 TAUNET_250:2 0.0765
4 TAUNET_250:2 TAUNET_250:3 0.1980
5 TAUNET_250:3 TAUGATE_250:A 0.3226
*END

*D_NET TAUNET_148 2.4686
*CONN
*I inst_168:ZN O
*I TAUGATE_148:A I
*CAP
1 inst_168:ZN 0.2766
2 TAUNET_148:1 0.4267
3 TAUNET_148:2 0.4596
4 TAUNET_148:3 0.3295
5 TAUNET_148:4 0.4724
6 TAUNET_148:5 0.4631
7 TAUGATE_148:A 0.0407
*RES
2 inst_168:ZN TAUNET_148:1 0.4130
3 TAUNET_148:1 TAUNET_148:2 0.3462
4 TAUNET_148:2 TAUNET_148:3 0.0714
5 TAUNET_148:3 TAUNET_148:4 0.2110
6 TAUNET_148:4 TAUNET_148:5 0.2588
7 TAUNET_148:5 TAUGATE_148:A 0.0339
*END

*D_NET TAUNET_85 0.9948
*CONN
*I inst_119:ZN O
*I TAUGATE_85:A I
*CAP
1 inst_119:ZN 0.4874
2 TAUNET_85:1 0.2489
3 TAUGATE_85:A 0.2584
*RES
2 inst_119:ZN TAUNET_85:1 0.0346
3 TAUNET_85:1 TAUGATE_85:A 0.4333
*END

*D_NET TAUNET_86 1.2318
*CONN
*I TAUGATE_40:Z O
*I TAUGATE_86:A I
*CAP
1 TAUGATE_40:Z 0.3416
2 TAUNET_86:1 0.1540
3 TAUNET_86:2 0.0325
4 TAUNET_86:3 0.0924
5 TAUNET_86:4 0.1850
6 TAUNET_86:5 0.1516
7 TAUGATE_86:A 0.2746
*RES
2 TAUGATE_40:Z TAUNET_86:1 0.4228
3 TAUNET_86:1 TAUNET_86:2 0.1417
4 TAUNET_86:2 TAUNET_86:3 0.3754
5 TAUNET_86:3 TAUNET_86:4 0.2016
6 TAUNET_86:4 TAUNET_86:5 0.0068
7 TAUNET_86:5 TAUGATE_86:A 0.2001
*END

*D_NET TAUNET_199 1.0932
*CONN
*I TAUGATE_24:Z O
*I TAUGATE_199:A I
*CAP
1 TAUGATE_24:Z 0.4926
2 TAUNET_199:1 0.3810
3 TAUGATE_199:A 0.2195
*RES
2 TAUGATE_24:Z TAUNET_199:1 0.2042
3 TAUNET_199:1 TAUGATE_199:A 0.2030
*END

*D_NET TAUNET_16 1.1297
*CONN
*I TAUGATE_129:Z O
*I TAUGATE_16:A I
*CAP
1 TAUGATE_129:Z 0.4413
2 TAUNET_16:1 0.4042
3 TAUNET_16:2 0.0451
4 TAUGATE_16:A 0.2391
*RES
2 TAUGATE_129:Z TAUNET_16:1 0.0321
3 TAUNET_16:1 TAUNET_16:2 0.4146
4 TAUNET_16:2 TAUGATE_16:A 0.0857
*END

*D_NET TAUNET_157 1.3928
*CONN
*P n176gat I
*I TAUGATE_157:A I
*CAP
1 n176gat 0.2245
2 TAUNET_157:1 0.0551
3 TAUNET_157:2 0.1877
4 TAUNET_157:3 0.0973
5 TAUNET_157:4 0.4235
6 TAUNET_157:5 0.1903
7 TAUGATE_157:A 0.2143
*RES
2 n176gat TAUNET_157:1 0.0701
3 TAUNET_157:1 TAUNET_157:2 0.2421
4 TAUNET_157:2 TAUNET_157:3 0.4634
5 TAUNET_157:3 TAUNET_157:4 0.2497
6 TAUNET_157:4 TAUNET_157:5 0.2766
7 TAUNET_157:5 TAUGATE_157:A 0.3086
*END

*D_NET TAUNET_166 1.1823
*CONN
*I inst_173:ZN O
*I TAUGATE_166:A I
*CAP
1 inst_173:ZN 0.4838
2 TAUNET_166:1 0.3539
3 TAUGATE_166:A 0.3446
*RES