*SPEF "IEEE 1481-1998"
*DESIGN "changes"
*DATE "Tue Dec 02 18:58:51 2014"
*VENDOR "TAU 2015 Contest"
*PROGRAM "Benchmark Parasitic Generator"
*VERSION "0.0"
*DESIGN_FLOW "NETLIST_TYPE_VERILOG"
*DIVIDER /
*DELIMITER :
*BUS_DELIMITER [ ]
*T_UNIT 1 PS
*C_UNIT 1 FF
*R_UNIT 1 KOHM
*L_UNIT 1 UH

*D_NET TAUNET_13 1.7439
*CONN
*I inst_64:ZN O
*I TAUGATE_13:A I
*CAP
1 inst_64:ZN 0.2611
2 TAUNET_13:1 0.4098
3 TAUNET_13:2 0.5009
4 TAUNET_13:3 0.2843
5 TAUGATE_13:A 0.2878
*RES
2 inst_64:ZN TAUNET_13:1 0.1659
3 TAUNET_13:1 TAUNET_13:2 0.2742
4 TAUNET_13:2 TAUNET_13:3 0.3494
5 TAUNET_13:3 TAUGATE_13:A 0.1485
*END

*D_NET TAUNET_12 1.3760
*CONN
*I inst_26:ZN O
*I TAUGATE_12:A I
*CAP
1 inst_26:ZN 0.2110
2 TAUNET_12:1 0.3070
3 TAUNET_12:2 0.3583
4 TAUNET_12:3 0.1395
5 TAUNET_12:4 0.0646
6 TAUNET_12:5 0.0794
7 TAUGATE_12:A 0.2161
*RES
2 inst_26:ZN TAUNET_12:1 0.1614
3 TAUNET_12:1 TAUNET_12:2 0.3312
4 TAUNET_12:2 TAUNET_12:3 0.3755
5 TAUNET_12:3 TAUNET_12:4 0.4644
6 TAUNET_12:4 TAUNET_12:5 0.4559
7 TAUNET_12:5 TAUGATE_12:A 0.4050
*END

*D_NET net_107 4.8652
*CONN
*I TAUGATE_43:Z O
*I inst_148:A2 I
*I inst_142:A2 I
*I inst_141:A2 I
*I inst_147:A2 I
*CAP
1 TAUGATE_43:Z 0.1670
2 net_107:1 0.2440
3 net_107:2 0.0332
4 inst_148:A2 0.0406
5 net_107:3 0.3706
6 net_107:4 0.0740
7 net_107:5 0.4871
8 inst_142:A2 0.4951
9 net_107:6 0.3356
10 net_107:7 0.3995
11 net_107:8 0.3845
12 net_107:9 0.4708
13 net_107:10 0.3056
14 inst_141:A2 0.3464
15 net_107:11 0.3276
16 inst_147:A2 0.3833
*RES
2 TAUGATE_43:Z net_107:1 0.2732
3 net_107:1 net_107:2 0.0073
4 net_107:2 inst_148:A2 0.1308
5 net_107:1 net_107:3 0.4125
6 net_107:3 net_107:4 0.0565
7 net_107:4 net_107:5 0.1285
8 net_107:5 inst_142:A2 0.0292
9 net_107:3 net_107:6 0.0305
10 net_107:6 net_107:7 0.2383
11 net_107:7 net_107:8 0.4020
12 net_107:8 net_107:9 0.2529
13 net_107:9 net_107:10 0.2665
14 net_107:10 inst_141:A2 0.4354
15 net_107:4 net_107:11 0.3292
16 net_107:11 inst_147:A2 0.0716
*END

*D_NET net_47 1.3846
*CONN
*I TAUGATE_36:Z O
*I inst_69:A I
*CAP
1 TAUGATE_36:Z 0.1922
2 net_47:1 0.1322
3 net_47:2 0.1905
4 net_47:3 0.4017
5 inst_69:A 0.4680
*RES
2 TAUGATE_36:Z net_47:1 0.2976
3 net_47:1 net_47:2 0.2331
4 net_47:2 net_47:3 0.2927
5 net_47:3 inst_69:A 0.3943
*END

*D_NET net_61 1.0845
*CONN
*I TAUGATE_49:Z O
*I inst_58:A I
*CAP
1 TAUGATE_49:Z 0.1955
2 net_61:1 0.4889
3 net_61:2 0.0703
4 inst_58:A 0.3298
*RES
2 TAUGATE_49:Z net_61:1 0.4131
3 net_61:1 net_61:2 0.3310
4 net_61:2 inst_58:A 0.2621
*END

*D_NET n1331gat 0.9833
*CONN
*I TAUGATE_48:Z O
*P n1331gat O
*CAP
1 TAUGATE_48:Z 0.1808
2 n1331gat:1 0.3990
3 n1331gat 0.4035
*RES
2 TAUGATE_48:Z n1331gat:1 0.0219
3 n1331gat:1 n1331gat 0.0830
*END

*D_NET net_137 1.6212
*CONN
*I TAUGATE_19:Z O
*I inst_93:B I
*CAP
1 TAUGATE_19:Z 0.1250
2 net_137:1 0.4976
3 net_137:2 0.3591
4 net_137:3 0.2780
5 net_137:4 0.2022
6 inst_93:B 0.1593
*RES
2 TAUGATE_19:Z net_137:1 0.4382
3 net_137:1 net_137:2 0.3498
4 net_137:2 net_137:3 0.4055
5 net_137:3 net_137:4 0.4519
6 net_137:4 inst_93:B 0.4658
*END

*D_NET net_91 2.2534
*CONN
*I TAUGATE_54:Z O
*I inst_125:A3 I
*I inst_124:A3 I
*CAP
1 TAUGATE_54:Z 0.4019
2 net_91:1 0.2503
3 inst_124:A3 0.4700
4 net_91:2 0.0376
5 net_91:3 0.0972
6 net_91:4 0.3594
7 net_91:5 0.0525
8 net_91:6 0.3248
9 inst_125:A3 0.2597
*RES
2 TAUGATE_54:Z net_91:1 0.3789
3 net_91:1 inst_124:A3 0.3545
4 net_91:1 net_91:2 0.1267
5 net_91:2 net_91:3 0.3840
6 net_91:3 net_91:4 0.2434
7 net_91:4 net_91:5 0.3726
8 net_91:5 net_91:6 0.2980
9 net_91:6 inst_125:A3 0.2454
*END

*D_NET net_6 1.0674
*CONN
*I TAUGATE_38:Z O
*I inst_62:B I
*CAP
1 TAUGATE_38:Z 0.1921
2 net_6:1 0.4443
3 net_6:2 0.1288
4 inst_62:B 0.3022
*RES
2 TAUGATE_38:Z net_6:1 0.1405
3 net_6:1 net_6:2 0.0668
4 net_6:2 inst_62:B 0.3699
*END

*D_NET TAUNET_35 1.5989
*CONN
*I inst_159:ZN O
*I TAUGATE_35:A I
*CAP
1 inst_159:ZN 0.4004
2 TAUNET_35:1 0.1341
3 TAUNET_35:2 0.3915
4 TAUNET_35:3 0.0282
5 TAUNET_35:4 0.3089
6 TAUNET_35:5 0.0253
7 TAUGATE_35:A 0.3105
*RES
2 inst_159:ZN TAUNET_35:1 0.1881
3 TAUNET_35:1 TAUNET_35:2 0.2034
4 TAUNET_35:2 TAUNET_35:3 0.1592
5 TAUNET_35:3 TAUNET_35:4 0.3147
6 TAUNET_35:4 TAUNET_35:5 0.2761
7 TAUNET_35:5 TAUGATE_35:A 0.3643
*END

*D_NET net_46 1.2795
*CONN
*I TAUGATE_41:Z O
*I inst_66:A I
*CAP
1 TAUGATE_41:Z 0.0666
2 net_46:1 0.3580
3 net_46:2 0.3774
4 net_46:3 0.2731
5 net_46:4 0.1525
6 inst_66:A 0.0518
*RES
2 TAUGATE_41:Z net_46:1 0.2548
3 net_46:1 net_46:2 0.2154
4 net_46:2 net_46:3 0.4921
5 net_46:3 net_46:4 0.1648
6 net_46:4 inst_66:A 0.1855
*END

*D_NET net_12 1.0916
*CONN
*I TAUGATE_14:Z O
*I inst_47:A I
*CAP
1 TAUGATE_14:Z 0.3530
2 net_12:1 0.2239
3 net_12:2 0.0917
4 inst_47:A 0.4230
*RES
2 TAUGATE_14:Z net_12:1 0.1494
3 net_12:1 net_12:2 0.3290
4 net_12:2 inst_47:A 0.1620
*END

*D_NET TAUNET_46 1.1549
*CONN
*I inst_139:ZN O
*I TAUGATE_46:A I
*CAP
1 inst_139:ZN 0.2883
2 TAUNET_46:1 0.4381
3 TAUNET_46:2 0.3484
4 TAUGATE_46:A 0.0801
*RES
2 inst_139:ZN TAUNET_46:1 0.1392
3 TAUNET_46:1 TAUNET_46:2 0.1891
4 TAUNET_46:2 TAUGATE_46:A 0.0464
*END

*D_NET TAUNET_24 1.0649
*CONN
*I TAUGATE_9:Z O
*I TAUGATE_24:A I
*CAP
1 TAUGATE_9:Z 0.0279
2 TAUNET_24:1 0.0649
3 TAUNET_24:2 0.0510
4 TAUNET_24:3 0.1600
5 TAUNET_24:4 0.1748
6 TAUNET_24:5 0.4787
7 TAUGATE_24:A 0.1076
*RES
2 TAUGATE_9:Z TAUNET_24:1 0.4606
3 TAUNET_24:1 TAUNET_24:2 0.3388
4 TAUNET_24:2 TAUNET_24:3 0.4657
5 TAUNET_24:3 TAUNET_24:4 0.3595
6 TAUNET_24:4 TAUNET_24:5 0.2471
7 TAUNET_24:5 TAUGATE_24:A 0.0832
*END

*D_NET TAUNET_16 0.8209
*CONN
*P n57gat I
*I TAUGATE_16:A I
*CAP
1 n57gat 0.3736
2 TAUNET_16:1 0.3644
3 TAUGATE_16:A 0.0829
*RES
2 n57gat TAUNET_16:1 0.1977
3 TAUNET_16:1 TAUGATE_16:A 0.4694
*END

*D_NET net_135 2.0853
*CONN
*I TAUGATE_33:Z O
*I inst_98:B I
*CAP
1 TAUGATE_33:Z 0.3882
2 net_135:1 0.0413
3 net_135:2 0.4651
4 net_135:3 0.4065
5 net_135:4 0.3164
6 net_135:5 0.3513
7 inst_98:B 0.1165
*RES
2 TAUGATE_33:Z net_135:1 0.0986
3 net_135:1 net_135:2 0.2243
4 net_135:2 net_135:3 0.1286
5 net_135:3 net_135:4 0.4269
6 net_135:4 net_135:5 0.2482
7 net_135:5 inst_98:B 0.2195
*END

*D_NET TAUNET_31 1.7569
*CONN
*P n141gat I
*I TAUGATE_31:A I
*CAP
1 n141gat 0.4091
2 TAUNET_31:1 0.3587
3 TAUNET_31:2 0.1869
4 TAUNET_31:3 0.4974
5 TAUGATE_31:A 0.3047
*RES
2 n141gat TAUNET_31:1 0.1200
3 TAUNET_31:1 TAUNET_31:2 0.4969
4 TAUNET_31:2 TAUNET_31:3 0.1210
5 TAUNET_31:3 TAUGATE_31:A 0.1733
*END

*D_NET n1333gat 1.1896
*CONN
*I TAUGATE_47:Z O
*P n1333gat O
*CAP
1 TAUGATE_47:Z 0.0283
2 n1333gat:1 0.2945
3 n1333gat:2 0.3177
4 n1333gat:3 0.2101
5 n1333gat 0.3390
*RES
2 TAUGATE_47:Z n1333gat:1 0.2046
3 n1333gat:1 n1333gat:2 0.3404
4 n1333gat:2 n1333gat:3 0.1317
5 n1333gat:3 n1333gat 0.3617
*END

*D_NET TAUNET_25 1.2055
*CONN
*I inst_109:ZN O
*I TAUGATE_25:A I
*CAP
1 inst_109:ZN 0.3629
2 TAUNET_25:1 0.3900
3 TAUNET_25:2 0.0557
4 TAUNET_25:3 0.1253
5 TAUGATE_25:A 0.2716
*RES
2 inst_109:ZN TAUNET_25:1 0.3735
3 TAUNET_25:1 TAUNET_25:2 0.1079
4 TAUNET_25:2 TAUNET_25:3 0.3323
5 TAUNET_25:3 TAUGATE_25:A 0.2907
*END

*D_NET TAUNET_27 1.4383
*CONN
*I inst_51:ZN O
*I TAUGATE_27:A I
*CAP
1 inst_51:ZN 0.4966
2 TAUNET_27:1 0.2702
3 TAUNET_27:2 0.2135
4 TAUNET_27:3 0.0419
5 TAUNET_27:4 0.2773
6 TAUNET_27:5 0.0903
7 TAUGATE_27:A 0.0485
*RES
2 inst_51:ZN TAUNET_27:1 0.4602
3 TAUNET_27:1 TAUNET_27:2 0.4262
4 TAUNET_27:2 TAUNET_27:3 0.2009
5 TAUNET_27:3 TAUNET_27:4 0.3114
6 TAUNET_27:4 TAUNET_27:5 0.3090
7 TAUNET_27:5 TAUGATE_27:A 0.3972
*END

*D_NET TAUNET_28 1.1430
*CONN
*I inst_171:ZN O
*I TAUGATE_28:A I
*CAP
1 inst_171:ZN 0.2443
2 TAUNET_28:1 0.3734
3 TAUNET_28:2 0.1567
4 TAUNET_28:3 0.1247
5 TAUGATE_28:A 0.2439
*RES
2 inst_171:ZN TAUNET_28:1 0.2588
3 TAUNET_28:1 TAUNET_28:2 0.4474
4 TAUNET_28:2 TAUNET_28:3 0.3528
5 TAUNET_28:3 TAUGATE_28:A 0.0472
*END

*D_NET n1347gat 1.3929
*CONN
*I TAUGATE_20:Z O
*P n1347gat O
*CAP
1 TAUGATE_20:Z 0.1981
2 n1347gat:1 0.0169
3 n1347gat:2 0.4026
4 n1347gat:3 0.4684
5 n1347gat:4 0.2490
6 n1347gat 0.0579
*RES
2 TAUGATE_20:Z n1347gat:1 0.0423
3 n1347gat:1 n1347gat:2 0.2861
4 n1347gat:2 n1347gat:3 0.4278
5 n1347gat:3 n1347gat:4 0.3875
6 n1347gat:4 n1347gat 0.4796
*END

*D_NET TAUNET_57 1.0064
*CONN
*I inst_57:ZN O
*I TAUGATE_57:A I
*CAP
1 inst_57:ZN 0.1554
2 TAUNET_57:1 0.4380
3 TAUGATE_57:A 0.4130
*RES
2 inst_57:ZN TAUNET_57:1 0.4990
3 TAUNET_57:1 TAUGATE_57:A 0.2134
*END

*D_NET net_147 2.0765
*CONN
*I TAUGATE_28:Z O
*I inst_103:B I
*CAP
1 TAUGATE_28:Z 0.4947
2 net_147:1 0.2854
3 net_147:2 0.4464
4 net_147:3 0.2438
5 net_147:4 0.2969
6 inst_103:B 0.3091
*RES
2 TAUGATE_28:Z net_147:1 0.5006
3 net_147:1 net_147:2 0.2264
4 net_147:2 net_147:3 0.3973
5 net_147:3 net_147:4 0.2044
6 net_147:4 inst_103:B 0.1531
*END

*D_NET TAUNET_37 1.2691
*CONN
*I inst_48:ZN O
*I TAUGATE_37:A I
*CAP
1 inst_48:ZN 0.2618
2 TAUNET_37:1 0.4002
3 TAUNET_37:2 0.3652
4 TAUNET_37:3 0.1857
5 TAUGATE_37:A 0.0562
*RES
2 inst_48:ZN TAUNET_37:1 0.0882
3 TAUNET_37:1 TAUNET_37:2 0.4386
4 TAUNET_37:2 TAUNET_37:3 0.2715
5 TAUNET_37:3 TAUGATE_37:A 0.0199
*END

*D_NET net_128 0.5520
*CONN
*I TAUGATE_35:Z O
*I inst_90:B I
*CAP
1 TAUGATE_35:Z 0.1459
2 net_128:1 0.1026
3 net_128:2 0.1939
4 inst_90:B 0.1095
*RES
2 TAUGATE_35:Z net_128:1 0.0212
3 net_128:1 net_128:2 0.1417
4 net_128:2 inst_90:B 0.2190
*END

*D_NET TAUNET_32 1.5644
*CONN
*I inst_56:ZN O
*I TAUGATE_32:A I
*CAP
1 inst_56:ZN 0.1138
2 TAUNET_32:1 0.3663
3 TAUNET_32:2 0.2540
4 TAUNET_32:3 0.0526
5 TAUNET_32:4 0.2388
6 TAUNET_32:5 0.1787
7 TAUGATE_32:A 0.3603
*RES
2 inst_56:ZN TAUNET_32:1 0.0603
3 TAUNET_32:1 TAUNET_32:2 0.0863
4 TAUNET_32:2 TAUNET_32:3 0.3102
5 TAUNET_32:3 TAUNET_32:4 0.1239
6 TAUNET_32:4 TAUNET_32:5 0.2473
7 TAUNET_32:5 TAUGATE_32:A 0.0055
*END

*D_NET TAUNET_38 1.2459
*CONN
*I inst_132:ZN O
*I TAUGATE_38:A I
*CAP
1 inst_132:ZN 0.2412
2 TAUNET_38:1 0.4441
3 TAUNET_38:2 0.4218
4 TAUNET_38:3 0.0848
5 TAUNET_38:4 0.0266
6 TAUGATE_38:A 0.0274
*RES
2 inst_132:ZN TAUNET_38:1 0.4218
3 TAUNET_38:1 TAUNET_38:2 0.2061
4 TAUNET_38:2 TAUNET_38:3 0.2110
5 TAUNET_38:3 TAUNET_38:4 0.4583
6 TAUNET_38:4 TAUGATE_38:A 0.3985
*END

*D_NET net_113 1.9898
*CONN
*I TAUGATE_45:Z O
*I inst_74:B I
*CAP
1 TAUGATE_45:Z 0.0725
2 net_113:1 0.3124
3 net_113:2 0.3685
4 net_113:3 0.4317
5 net_113:4 0.1801
6 net_113:5 0.2826
7 inst_74:B 0.3420
*RES
2 TAUGATE_45:Z net_113:1 0.0965
3 net_113:1 net_113:2 0.2555
4 net_113:2 net_113:3 0.1304
5 net_113:3 net_113:4 0.3675
6 net_113:4 net_113:5 0.4634
7 net_113:5 inst_74:B 0.2869
*END

*D_NET net_76 0.5511
*CONN
*I TAUGATE_51:Z O
*I inst_104:A3 I
*CAP
1 TAUGATE_51:Z 0.1182
2 net_76:1 0.0608
3 inst_104:A3 0.3721
*RES
2 TAUGATE_51:Z net_76:1 0.4648
3 net_76:1 inst_104:A3 0.2376
*END

*D_NET TAUNET_40 0.8353
*CONN
*I inst_121:ZN O
*I TAUGATE_40:A I
*CAP
1 inst_121:ZN 0.3081
2 TAUNET_40:1 0.0264
3 TAUNET_40:2 0.2502
4 TAUGATE_40:A 0.2506
*RES
2 inst_121:ZN TAUNET_40:1 0.4486
3 TAUNET_40:1 TAUNET_40:2 0.0641
4 TAUNET_40:2 TAUGATE_40:A 0.0138
*END

*D_NET TAUNET_20 0.7959
*CONN
*I inst_80:ZN O
*I TAUGATE_20:A I
*CAP
1 inst_80:ZN 0.0204
2 TAUNET_20:1 0.1001
3 TAUNET_20:2 0.2747
4 TAUNET_20:3 0.1704
5 TAUGATE_20:A 0.2303
*RES
2 inst_80:ZN TAUNET_20:1 0.0121
3 TAUNET_20:1 TAUNET_20:2 0.0620
4 TAUNET_20:2 TAUNET_20:3 0.0267
5 TAUNET_20:3 TAUGATE_20:A 0.1278
*END

*D_NET TAUNET_14 1.5058
*CONN
*I inst_4:Z O
*I TAUGATE_14:A I
*CAP
1 inst_4:Z 0.3621
2 TAUNET_14:1 0.3490
3 TAUNET_14:2 0.4751
4 TAUGATE_14:A 0.3195
*RES
2 inst_4:Z TAUNET_14:1 0.4748
3 TAUNET_14:1 TAUNET_14:2 0.2505
4 TAUNET_14:2 TAUGATE_14:A 0.2036
*END

*D_NET net_69 1.2849
*CONN
*I TAUGATE_50:Z O
*I inst_64:B I
*CAP
1 TAUGATE_50:Z 0.0185
2 net_69:1 0.2437
3 net_69:2 0.3641
4 net_69:3 0.1411
5 net_69:4 0.2452
6 inst_64:B 0.2723
*RES
2 TAUGATE_50:Z net_69:1 0.2079
3 net_69:1 net_69:2 0.2449
4 net_69:2 net_69:3 0.0406
5 net_69:3 net_69:4 0.0917
6 net_69:4 inst_64:B 0.0078
*END

*D_NET net_123 0.3723
*CONN
*I TAUGATE_21:Z O
*I inst_75:B I
*CAP
1 TAUGATE_21:Z 0.0264
2 net_123:1 0.1906
3 inst_75:B 0.1553
*RES
2 TAUGATE_21:Z net_123:1 0.0937
3 net_123:1 inst_75:B 0.2944
*END

*D_NET n57gat 3.3828
*CONN
*I TAUGATE_16:Z O
*I inst_2:B I
*I inst_95:A I
*I inst_18:B I
*CAP
1 TAUGATE_16:Z 0.0209
2 n57gat:1 0.1067
3 n57gat:2 0.4881
4 inst_18:B 0.3672
5 n57gat:3 0.2979
6 n57gat:4 0.3428
7 n57gat:5 0.2325
8 n57gat:6 0.2733
9 n57gat:7 0.1266
10 inst_95:A 0.3814
11 n57gat:8 0.4527
12 n57gat:9 0.1465
13 inst_2:B 0.1463
*RES
2 TAUGATE_16:Z n57gat:1 0.4629
3 n57gat:1 n57gat:2 0.1157
4 n57gat:2 inst_18:B 0.1901
5 n57gat:1 n57gat:3 0.1363
6 n57gat:3 n57gat:4 0.3277
7 n57gat:4 n57gat:5 0.3144
8 n57gat:5 n57gat:6 0.4503
9 n57gat:6 n57gat:7 0.3676
10 n57gat:7 inst_95:A 0.1603
11 n57gat:7 n57gat:8 0.4621
12 n57gat:8 n57gat:9 0.4065
13 n57gat:9 inst_2:B 0.0227
*END

*D_NET net_141 0.7521
*CONN
*I TAUGATE_55:Z O
*I inst_94:B I
*CAP
1 TAUGATE_55:Z 0.4114
2 net_141:1 0.1546
3 inst_94:B 0.1861
*RES
2 TAUGATE_55:Z net_141:1 0.4367
3 net_141:1 inst_94:B 0.3452
*END

*D_NET TAUNET_49 0.3052
*CONN
*I inst_53:ZN O
*I TAUGATE_49:A I
*CAP
1 inst_53:ZN 0.1217
2 TAUNET_49:1 0.1222
3 TAUGATE_49:A 0.0613
*RES
2 inst_53:ZN TAUNET_49:1 0.1692
3 TAUNET_49:1 TAUGATE_49:A 0.4407
*END

*D_NET n1327gat 1.3881
*CONN
*I TAUGATE_18:Z O
*P n1327gat O
*CAP
1 TAUGATE_18:Z 0.2563
2 n1327gat:1 0.2603
3 n1327gat:2 0.2874
4 n1327gat:3 0.3072
5 n1327gat 0.2768
*RES
2 TAUGATE_18:Z n1327gat:1 0.1679
3 n1327gat:1 n1327gat:2 0.2053
4 n1327gat:2 n1327gat:3 0.2140
5 n1327gat:3 n1327gat 0.3306
*END

*D_NET net_68 2.0736
*CONN
*I TAUGATE_42:Z O
*I inst_71:B I
*CAP
1 TAUGATE_42:Z 0.2580
2 net_68:1 0.4796
3 net_68:2 0.3806
4 net_68:3 0.4946
5 inst_71:B 0.4608
*RES
2 TAUGATE_42:Z net_68:1 0.4692
3 net_68:1 net_68:2 0.4766
4 net_68:2 net_68:3 0.0589
5 net_68:3 inst_71:B 0.0962
*END

*D_NET net_83 1.3235
*CONN
*I TAUGATE_40:Z O
*I inst_119:A3 I
*CAP
1 TAUGATE_40:Z 0.1750
2 net_83:1 0.0845
3 net_83:2 0.1888
4 net_83:3 0.1436
5 net_83:4 0.1762
6 net_83:5 0.4748
7 inst_119:A3 0.0806
*RES
2 TAUGATE_40:Z net_83:1 0.0407
3 net_83:1 net_83:2 0.2069
4 net_83:2 net_83:3 0.0491
5 net_83:3 net_83:4 0.4137
6 net_83:4 net_83:5 0.3046
7 net_83:5 inst_119:A3 0.2987
*END

*D_NET TAUNET_50 1.6284
*CONN
*I inst_61:ZN O
*I TAUGATE_50:A I
*CAP
1 inst_61:ZN 0.1831
2 TAUNET_50:1 0.0191
3 TAUNET_50:2 0.3538
4 TAUNET_50:3 0.4300
5 TAUNET_50:4 0.3629
6 TAUNET_50:5 0.0787
7 TAUGATE_50:A 0.2007
*RES
2 inst_61:ZN TAUNET_50:1 0.2971
3 TAUNET_50:1 TAUNET_50:2 0.4025
4 TAUNET_50:2 TAUNET_50:3 0.5010
5 TAUNET_50:3 TAUNET_50:4 0.3538
6 TAUNET_50:4 TAUNET_50:5 0.4649
7 TAUNET_50:5 TAUGATE_50:A 0.0482
*END

*D_NET n1345gat 1.9070
*CONN
*I TAUGATE_24:Z O
*P n1345gat O
*CAP
1 TAUGATE_24:Z 0.2963
2 n1345gat:1 0.2002
3 n1345gat:2 0.2573
4 n1345gat:3 0.3761
5 n1345gat:4 0.0616
6 n1345gat:5 0.4298
7 n1345gat 0.2857
*RES
2 TAUGATE_24:Z n1345gat:1 0.2634
3 n1345gat:1 n1345gat:2 0.0470
4 n1345gat:2 n1345gat:3 0.0745
5 n1345gat:3 n1345gat:4 0.1738
6 n1345gat:4 n1345gat:5 0.4336
7 n1345gat:5 n1345gat 0.4556
*END

*D_NET n120gat 2.8401
*CONN
*I TAUGATE_30:Z O
*I inst_15:A I
*I inst_86:A I
*I inst_28:B I
*CAP
1 TAUGATE_30:Z 0.0036
2 n120gat:1 0.2737
3 n120gat:2 0.3095
4 inst_15:A 0.4895
5 n120gat:3 0.3671
6 inst_86:A 0.3815
7 n120gat:4 0.1379
8 n120gat:5 0.1139
9 n120gat:6 0.0489
10 n120gat:7 0.0861
11 n120gat:8 0.1477
12 inst_28:B 0.4806
*RES
2 TAUGATE_30:Z n120gat:1 0.4033
3 n120gat:1 n120gat:2 0.2734
4 n120gat:2 inst_15:A 0.3461
5 n120gat:2 n120gat:3 0.1458
6 n120gat:3 inst_86:A 0.4915
7 n120gat:2 n120gat:4 0.3473
8 n120gat:4 n120gat:5 0.1114
9 n120gat:5 n120gat:6 0.0198
10 n120gat:6 n120gat:7 0.2366
11 n120gat:7 n120gat:8 0.1100
12 n120gat:8 inst_28:B 0.2818
*END

*D_NET net_20 2.0614
*CONN
*I TAUGATE_29:Z O
*I inst_33:B I
*CAP
1 TAUGATE_29:Z 0.1592
2 net_20:1 0.3328
3 net_20:2 0.1906
4 net_20:3 0.5003
5 net_20:4 0.4347
6 net_20:5 0.3044
7 inst_33:B 0.1394
*RES
2 TAUGATE_29:Z net_20:1 0.0096
3 net_20:1 net_20:2 0.4963
4 net_20:2 net_20:3 0.2377
5 net_20:3 net_20:4 0.2571
6 net_20:4 net_20:5 0.3610
7 net_20:5 inst_33:B 0.0042
*END

*D_NET TAUNET_23 1.5525
*CONN
*I inst_140:ZN O
*I TAUGATE_23:A I
*CAP
1 inst_140:ZN 0.3841
2 TAUNET_23:1 0.2352
3 TAUNET_23:2 0.3112
4 TAUNET_23:3 0.1345
5 TAUNET_23:4 0.4134
6 TAUGATE_23:A 0.0741
*RES
2 inst_140:ZN TAUNET_23:1 0.4290
3 TAUNET_23:1 TAUNET_23:2 0.4891
4 TAUNET_23:2 TAUNET_23:3 0.0621
5 TAUNET_23:3 TAUNET_23:4 0.2122
6 TAUNET_23:4 TAUGATE_23:A 0.2034
*END

*D_NET TAUNET_39 0.9541
*CONN
*I inst_44:ZN O
*I TAUGATE_39:A I
*CAP
1 inst_44:ZN 0.2112
2 TAUNET_39:1 0.1106
3 TAUNET_39:2 0.0283
4 TAUNET_39:3 0.2644
5 TAUGATE_39:A 0.3395
*RES
2 inst_44:ZN TAUNET_39:1 0.4160
3 TAUNET_39:1 TAUNET_39:2 0.1311
4 TAUNET_39:2 TAUNET_39:3 0.1702
5 TAUNET_39:3 TAUGATE_39:A 0.0535
*END

*D_NET TAUNET_51 1.0831
*CONN
*I inst_179:ZN O
*I TAUGATE_51:A I
*CAP
1 inst_179:ZN 0.2939
2 TAUNET_51:1 0.0520
3 TAUNET_51:2 0.1787
4 TAUNET_51:3 0.3277
5 TAUGATE_51:A 0.2308
*RES
2 inst_179:ZN TAUNET_51:1 0.1825
3 TAUNET_51:1 TAUNET_51:2 0.4154
4 TAUNET_51:2 TAUNET_51:3 0.4205
5 TAUNET_51:3 TAUGATE_51:A 0.1921
*END

*D_NET net_78 2.5377
*CONN
*I TAUGATE_25:Z O
*I inst_139:A1 I
*I inst_110:A1 I
*CAP
1 TAUGATE_25:Z 0.0500
2 net_78:1 0.2552
3 net_78:2 0.2397
4 net_78:3 0.3943
5 net_78:4 0.0450
6 inst_110:A1 0.3586
7 net_78:5 0.0277
8 net_78:6 0.2232
9 net_78:7 0.0700
10 net_78:8 0.3825
11 inst_139:A1 0.4916
*RES
2 TAUGATE_25:Z net_78:1 0.1804
3 net_78:1 net_78:2 0.2132
4 net_78:2 net_78:3 0.3448
5 net_78:3 net_78:4 0.2539
6 net_78:4 inst_110:A1 0.0169
7 net_78:3 net_78:5 0.0258
8 net_78:5 net_78:6 0.0722
9 net_78:6 net_78:7 0.0268
10 net_78:7 net_78:8 0.0274
11 net_78:8 inst_139:A1 0.0955
*END

*D_NET net_27 0.7110
*CONN
*I TAUGATE_17:Z O
*I inst_34:A I
*CAP
1 TAUGATE_17:Z 0.0730
2 net_27:1 0.1500
3 net_27:2 0.2720
4 net_27:3 0.0605
5 inst_34:A 0.1555
*RES
2 TAUGATE_17:Z net_27:1 0.4347
3 net_27:1 net_27:2 0.2976
4 net_27:2 net_27:3 0.3531
5 net_27:3 inst_34:A 0.0316
*END

*D_NET net_57 1.2356
*CONN
*I TAUGATE_27:Z O
*I inst_59:A I
*CAP
1 TAUGATE_27:Z 0.0755
2 net_57:1 0.3515
3 net_57:2 0.2983
4 net_57:3 0.4269
5 net_57:4 0.0493
6 inst_59:A 0.0341
*RES
2 TAUGATE_27:Z net_57:1 0.3020
3 net_57:1 net_57:2 0.3389
4 net_57:2 net_57:3 0.4000
5 net_57:3 net_57:4 0.0188
6 net_57:4 inst_59:A 0.4709
*END

*D_NET TAUNET_19 0.8262
*CONN
*I TAUGATE_5:Z O
*I TAUGATE_19:A I
*CAP
1 TAUGATE_5:Z 0.0122
2 TAUNET_19:1 0.0936
3 TAUNET_19:2 0.3051
4 TAUNET_19:3 0.1197
5 TAUGATE_19:A 0.2956
*RES
2 TAUGATE_5:Z TAUNET_19:1 0.2210
3 TAUNET_19:1 TAUNET_19:2 0.0970
4 TAUNET_19:2 TAUNET_19:3 0.2798
5 TAUNET_19:3 TAUGATE_19:A 0.3150
*END

*D_NET TAUNET_34 1.2664
*CONN
*I inst_126:ZN O
*I TAUGATE_34:A I
*CAP
1 inst_126:ZN 0.2108
2 TAUNET_34:1 0.0161
3 TAUNET_34:2 0.2047
4 TAUNET_34:3 0.3729
5 TAUNET_34:4 0.0610
6 TAUGATE_34:A 0.4010
*RES
2 inst_126:ZN TAUNET_34:1 0.2910
3 TAUNET_34:1 TAUNET_34:2 0.3768
4 TAUNET_34:2 TAUNET_34:3 0.3083
5 TAUNET_34:3 TAUNET_34:4 0.1250
6 TAUNET_34:4 TAUGATE_34:A 0.3526
*END

*D_NET TAUNET_54 1.6292
*CONN
*I inst_137:ZN O
*I TAUGATE_54:A I
*CAP
1 inst_137:ZN 0.3144
2 TAUNET_54:1 0.0820
3 TAUNET_54:2 0.2174
4 TAUNET_54:3 0.3638
5 TAUNET_54:4 0.4097
6 TAUGATE_54:A 0.2418
*RES
2 inst_137:ZN TAUNET_54:1 0.4080
3 TAUNET_54:1 TAUNET_54:2 0.3118
4 TAUNET_54:2 TAUNET_54:3 0.4981
5 TAUNET_54:3 TAUNET_54:4 0.3134
6 TAUNET_54:4 TAUGATE_54:A 0.4059
*END

*D_NET TAUNET_44 0.9494
*CONN
*I inst_110:ZN O
*I TAUGATE_44:A I
*CAP
1 inst_110:ZN 0.0910
2 TAUNET_44:1 0.3093
3 TAUNET_44:2 0.3342
4 TAUGATE_44:A 0.2150
*RES
2 inst_110:ZN TAUNET_44:1 0.0109
3 TAUNET_44:1 TAUNET_44:2 0.1830
4 TAUNET_44:2 TAUGATE_44:A 0.2298
*END

*D_NET net_0 0.1587
*CONN
*I TAUGATE_34:Z O
*I inst_61:B I
*CAP
1 TAUGATE_34:Z 0.0044
2 net_0:1 0.0476
3 net_0:2 0.0521
4 inst_61:B 0.0546
*RES
2 TAUGATE_34:Z net_0:1 0.0043
3 net_0:1 net_0:2 0.2737
4 net_0:2 inst_61:B 0.4724
*END

*D_NET TAUNET_43 1.0994
*CONN
*I TAUGATE_7:Z O
*I TAUGATE_43:A I
*CAP
1 TAUGATE_7:Z 0.2426
2 TAUNET_43:1 0.2784
3 TAUNET_43:2 0.2008
4 TAUGATE_43:A 0.3776
*RES
2 TAUGATE_7:Z TAUNET_43:1 0.2937
3 TAUNET_43:1 TAUNET_43:2 0.0093
4 TAUNET_43:2 TAUGATE_43:A 0.2822
*END

*D_NET TAUNET_56 1.0927
*CONN
*I inst_85:ZN O
*I TAUGATE_56:A I
*CAP
1 inst_85:ZN 0.0309
2 TAUNET_56:1 0.3809
3 TAUNET_56:2 0.3567
4 TAUGATE_56:A 0.3242
*RES
2 inst_85:ZN TAUNET_56:1 0.2336
3 TAUNET_56:1 TAUNET_56:2 0.3863
4 TAUNET_56:2 TAUGATE_56:A 0.2365
*END

*D_NET TAUNET_55 1.1858
*CONN
*I inst_167:ZN O
*I TAUGATE_55:A I
*CAP
1 inst_167:ZN 0.3572
2 TAUNET_55:1 0.2185
3 TAUNET_55:2 0.2266
4 TAUNET_55:3 0.2538
5 TAUGATE_55:A 0.1297
*RES
2 inst_167:ZN TAUNET_55:1 0.4791
3 TAUNET_55:1 TAUNET_55:2 0.2417
4 TAUNET_55:2 TAUNET_55:3 0.2444
5 TAUNET_55:3 TAUGATE_55:A 0.4262
*END

*D_NET n64gat 2.5531
*CONN
*I TAUGATE_22:Z O
*I inst_1:B I
*I inst_18:A I
*I inst_94:A I
*CAP
1 TAUGATE_22:Z 0.3015
2 n64gat:1 0.3035
3 n64gat:2 0.4053
4 inst_94:A 0.0863
5 n64gat:3 0.3711
6 n64gat:4 0.0512
7 inst_18:A 0.1351
8 n64gat:5 0.1146
9 n64gat:6 0.3234
10 inst_1:B 0.4610
*RES
2 TAUGATE_22:Z n64gat:1 0.2362
3 n64gat:1 n64gat:2 0.1365
4 n64gat:2 inst_94:A 0.0277
5 n64gat:2 n64gat:3 0.0984
6 n64gat:3 n64gat:4 0.0368
7 n64gat:4 inst_18:A 0.4376
8 n64gat:1 n64gat:5 0.4832
9 n64gat:5 n64gat:6 0.2776
10 n64gat:6 inst_1:B 0.3781
*END

*D_NET TAUNET_11 1.1921
*CONN
*I inst_73:ZN O
*I TAUGATE_11:A I
*CAP
1 inst_73:ZN 0.0185
2 TAUNET_11:1 0.1588
3 TAUNET_11:2 0.3738
4 TAUNET_11:3 0.4556
5 TAUNET_11:4 0.1835
6 TAUGATE_11:A 0.0020
*RES
2 inst_73:ZN TAUNET_11:1 0.2614
3 TAUNET_11:1 TAUNET_11:2 0.3010
4 TAUNET_11:2 TAUNET_11:3 0.2164
5 TAUNET_11:3 TAUNET_11:4 0.4372
6 TAUNET_11:4 TAUGATE_11:A 0.1158
*END

*D_NET TAUNET_33 1.1191
*CONN
*I inst_164:ZN O
*I TAUGATE_33:A I
*CAP
1 inst_164:ZN 0.3810
2 TAUNET_33:1 0.1662
3 TAUNET_33:2 0.3178
4 TAUGATE_33:A 0.2541
*RES
2 inst_164:ZN TAUNET_33:1 0.2497
3 TAUNET_33:1 TAUNET_33:2 0.4625
4 TAUNET_33:2 TAUGATE_33:A 0.2343
*END

*D_NET net_103 3.7591
*CONN
*I TAUGATE_58:Z O
*I inst_145:A2 I
*I inst_146:A2 I
*I inst_144:A2 I
*I inst_143:A2 I
*CAP
1 TAUGATE_58:Z 0.3461
2 net_103:1 0.4109
3 net_103:2 0.0945
4 net_103:3 0.2326
5 inst_145:A2 0.0121
6 net_103:4 0.4527
7 inst_146:A2 0.3131
8 net_103:5 0.3736
9 net_103:6 0.3306
10 net_103:7 0.3042
11 net_103:8 0.1317
12 net_103:9 0.1481
13 inst_144:A2 0.2485
14 net_103:10 0.0047
15 net_103:11 0.1418
16 inst_143:A2 0.2138
*RES
2 TAUGATE_58:Z net_103:1 0.2674
3 net_103:1 net_103:2 0.2072
4 net_103:2 net_103:3 0.0414
5 net_103:3 inst_145:A2 0.2455
6 net_103:1 net_103:4 0.4392
7 net_103:4 inst_146:A2 0.4048
8 net_103:3 net_103:5 0.2201
9 net_103:5 net_103:6 0.2966
10 net_103:6 net_103:7 0.3013
11 net_103:7 net_103:8 0.0758
12 net_103:8 net_103:9 0.0262
13 net_103:9 inst_144:A2 0.3812
14 net_103:1 net_103:10 0.3805
15 net_103:10 net_103:11 0.2523
16 net_103:11 inst_143:A2 0.0497
*END

*D_NET TAUNET_22 1.3598
*CONN
*P n64gat I
*I TAUGATE_22:A I
*CAP
1 n64gat 0.3913
2 TAUNET_22:1 0.3201
3 TAUNET_22:2 0.0320
4 TAUNET_22:3 0.2786
5 TAUGATE_22:A 0.3378
*RES
2 n64gat TAUNET_22:1 0.4364
3 TAUNET_22:1 TAUNET_22:2 0.2454
4 TAUNET_22:2 TAUNET_22:3 0.4527
5 TAUNET_22:3 TAUGATE_22:A 0.2663
*END

*D_NET TAUNET_41 1.5865
*CONN
*I inst_45:ZN O
*I TAUGATE_41:A I
*CAP
1 inst_45:ZN 0.1740
2 TAUNET_41:1 0.3351
3 TAUNET_41:2 0.4105
4 TAUNET_41:3 0.3004
5 TAUGATE_41:A 0.3665
*RES
2 inst_45:ZN TAUNET_41:1 0.1341
3 TAUNET_41:1 TAUNET_41:2 0.0859
4 TAUNET_41:2 TAUNET_41:3 0.1706
5 TAUNET_41:3 TAUGATE_41:A 0.3812
*END

*D_NET TAUNET_30 0.4838
*CONN
*P n120gat I
*I TAUGATE_30:A I
*CAP
1 n120gat 0.1227
2 TAUNET_30:1 0.0059
3 TAUGATE_30:A 0.3552
*RES
2 n120gat TAUNET_30:1 0.3839
3 TAUNET_30:1 TAUGATE_30:A 0.1840
*END

*D_NET TAUNET_58 2.5126
*CONN
*I inst_114:ZN O
*I TAUGATE_58:A I
*CAP
1 inst_114:ZN 0.3573
2 TAUNET_58:1 0.3575
3 TAUNET_58:2 0.1715
4 TAUNET_58:3 0.3050
5 TAUNET_58:4 0.3594
6 TAUNET_58:5 0.4902
7 TAUGATE_58:A 0.4716
*RES
2 inst_114:ZN TAUNET_58:1 0.2112
3 TAUNET_58:1 TAUNET_58:2 0.1762
4 TAUNET_58:2 TAUNET_58:3 0.1166
5 TAUNET_58:3 TAUNET_58:4 0.1660
6 TAUNET_58:4 TAUNET_58:5 0.2177
7 TAUNET_58:5 TAUGATE_58:A 0.2908
*END

*D_NET n127gat 4.9259
*CONN
*I TAUGATE_53:Z O
*I inst_14:B I
*I inst_22:B I
*I inst_85:A I
*CAP
1 TAUGATE_53:Z 0.3308
2 n127gat:1 0.4669
3 n127gat:2 0.1932
4 n127gat:3 0.0675
5 n127gat:4 0.0053
6 n127gat:5 0.1459
7 inst_22:B 0.0437
8 n127gat:6 0.1669
9 n127gat:7 0.4800
10 n127gat:8 0.4518
11 n127gat:9 0.0570
12 n127gat:10 0.4909
13 inst_14:B 0.0572
14 n127gat:11 0.4474
15 n127gat:12 0.2931
16 n127gat:13 0.2848
17 n127gat:14 0.2246
18 n127gat:15 0.3320
19 inst_85:A 0.3870
*RES
2 TAUGATE_53:Z n127gat:1 0.4598
3 n127gat:1 n127gat:2 0.3838
4 n127gat:2 n127gat:3 0.2033
5 n127gat:3 n127gat:4 0.3263
6 n127gat:4 n127gat:5 0.4574
7 n127gat:5 inst_22:B 0.4683
8 n127gat:2 n127gat:6 0.5008
9 n127gat:6 n127gat:7 0.1013
10 n127gat:7 n127gat:8 0.2457
11 n127gat:8 n127gat:9 0.4210
12 n127gat:9 n127gat:10 0.2594
13 n127gat:10 inst_14:B 0.3565
14 n127gat:9 n127gat:11 0.3663
15 n127gat:11 n127gat:12 0.1512
16 n127gat:12 n127gat:13 0.1368
17 n127gat:13 n127gat:14 0.4493
18 n127gat:14 n127gat:15 0.4663
19 n127gat:15 inst_85:A 0.2866
*END

*D_NET net_43 1.6286
*CONN
*I TAUGATE_15:Z O
*I inst_71:A I
*CAP
1 TAUGATE_15:Z 0.1599
2 net_43:1 0.4697
3 net_43:2 0.4844
4 net_43:3 0.0401
5 net_43:4 0.2861
6 inst_71:A 0.1883
*RES
2 TAUGATE_15:Z net_43:1 0.3075
3 net_43:1 net_43:2 0.0604
4 net_43:2 net_43:3 0.3908
5 net_43:3 net_43:4 0.2921
6 net_43:4 inst_71:A 0.4162
*END

*D_NET net_21 1.0326
*CONN
*I TAUGATE_12:Z O
*I inst_44:B I
*CAP
1 TAUGATE_12:Z 0.0491
2 net_21:1 0.2111
3 net_21:2 0.3010
4 net_21:3 0.1515
5 net_21:4 0.0492
6 inst_44:B 0.2707
*RES
2 TAUGATE_12:Z net_21:1 0.0711
3 net_21:1 net_21:2 0.2365
4 net_21:2 net_21:3 0.0021
5 net_21:3 net_21:4 0.2080
6 net_21:4 inst_44:B 0.3529
*END

*D_NET TAUNET_52 1.9943
*CONN
*I inst_118:ZN O
*I TAUGATE_52:A I
*CAP
1 inst_118:ZN 0.3648
2 TAUNET_52:1 0.3187
3 TAUNET_52:2 0.4272
4 TAUNET_52:3 0.0224
5 TAUNET_52:4 0.4026
6 TAUNET_52:5 0.2784
7 TAUGATE_52:A 0.1803
*RES
2 inst_118:ZN TAUNET_52:1 0.0882
3 TAUNET_52:1 TAUNET_52:2 0.2924
4 TAUNET_52:2 TAUNET_52:3 0.4780
5 TAUNET_52:3 TAUNET_52:4 0.3510
6 TAUNET_52:4 TAUNET_52:5 0.1182
7 TAUNET_52:5 TAUGATE_52:A 0.2614
*END

*D_NET TAUNET_59 2.0123
*CONN
*I inst_124:ZN O
*I TAUGATE_59:A I
*CAP
1 inst_124:ZN 0.2582
2 TAUNET_59:1 0.0762
3 TAUNET_59:2 0.1986
4 TAUNET_59:3 0.3922
5 TAUNET_59:4 0.3950
6 TAUNET_59:5 0.2666
7 TAUGATE_59:A 0.4255
*RES
2 inst_124:ZN TAUNET_59:1 0.4671
3 TAUNET_59:1 TAUNET_59:2 0.2972
4 TAUNET_59:2 TAUNET_59:3 0.3936
5 TAUNET_59:3 TAUNET_59:4 0.4880
6 TAUNET_59:4 TAUNET_59:5 0.4169
7 TAUNET_59:5 TAUGATE_59:A 0.3167
*END

*D_NET net_79 1.2435
*CONN
*I TAUGATE_44:Z O
*I inst_105:A3 I
*CAP
1 TAUGATE_44:Z 0.1073
2 net_79:1 0.1300
3 net_79:2 0.3795
4 net_79:3 0.2362
5 net_79:4 0.1908
6 inst_105:A3 0.1996
*RES
2 TAUGATE_44:Z net_79:1 0.3123
3 net_79:1 net_79:2 0.1251
4 net_79:2 net_79:3 0.0048
5 net_79:3 net_79:4 0.3126
6 net_79:4 inst_105:A3 0.0195
*END

*D_NET net_65 1.8169
*CONN
*I TAUGATE_57:Z O
*I inst_69:B I
*CAP
1 TAUGATE_57:Z 0.3700
2 net_65:1 0.3466
3 net_65:2 0.4948
4 net_65:3 0.4038
5 net_65:4 0.1954
6 inst_69:B 0.0063
*RES
2 TAUGATE_57:Z net_65:1 0.4904
3 net_65:1 net_65:2 0.0915
4 net_65:2 net_65:3 0.4619
5 net_65:3 net_65:4 0.1065
6 net_65:4 inst_69:B 0.1990
*END

*D_NET TAUNET_48 0.5577
*CONN
*I inst_96:ZN O
*I TAUGATE_48:A I
*CAP
1 inst_96:ZN 0.0690
2 TAUNET_48:1 0.2934
3 TAUNET_48:2 0.0661
4 TAUNET_48:3 0.0281
5 TAUGATE_48:A 0.1011
*RES
2 inst_96:ZN TAUNET_48:1 0.2539
3 TAUNET_48:1 TAUNET_48:2 0.0765
4 TAUNET_48:2 TAUNET_48:3 0.1980
5 TAUNET_48:3 TAUGATE_48:A 0.3226
*END

*D_NET net_50 2.4686
*CONN
*I TAUGATE_37:Z O
*I inst_56:A I
*CAP
1 TAUGATE_37:Z 0.2766
2 net_50:1 0.4267
3 net_50:2 0.4596
4 net_50:3 0.3295
5 net_50:4 0.4724
6 net_50:5 0.4631
7 inst_56:A 0.0407
*RES
2 TAUGATE_37:Z net_50:1 0.4130
3 net_50:1 net_50:2 0.3462
4 net_50:2 net_50:3 0.0714
5 net_50:3 net_50:4 0.2110
6 net_50:4 net_50:5 0.2588
7 net_50:5 inst_56:A 0.0339
*END

*D_NET TAUNET_42 0.9948
*CONN
*I inst_60:ZN O
*I TAUGATE_42:A I
*CAP
1 inst_60:ZN 0.4874
2 TAUNET_42:1 0.2489
3 TAUGATE_42:A 0.2584
*RES
2 inst_60:ZN TAUNET_42:1 0.0346
3 TAUNET_42:1 TAUGATE_42:A 0.4333
*END

*D_NET n1354gat 1.2318
*CONN
*I TAUGATE_11:Z O
*P n1354gat O
*CAP
1 TAUGATE_11:Z 0.3416
2 n1354gat:1 0.1540
3 n1354gat:2 0.0325
4 n1354gat:3 0.0924
5 n1354gat:4 0.1850
6 n1354gat:5 0.1516
7 n1354gat 0.2746
*RES
2 TAUGATE_11:Z n1354gat:1 0.4228
3 n1354gat:1 n1354gat:2 0.1417
4 n1354gat:2 n1354gat:3 0.3754
5 n1354gat:3 n1354gat:4 0.2016
6 n1354gat:4 n1354gat:5 0.0068
7 n1354gat:5 n1354gat 0.2001
*END

*D_NET net_96 1.0932
*CONN
*I TAUGATE_23:Z O
*I inst_79:B I
*CAP
1 TAUGATE_23:Z 0.4926
2 net_96:1 0.3810
3 inst_79:B 0.2195
*RES
2 TAUGATE_23:Z net_96:1 0.2042
3 net_96:1 inst_79:B 0.2030
*END

*D_NET TAUNET_18 1.1297
*CONN
*I inst_100:ZN O
*I TAUGATE_18:A I
*CAP
1 inst_100:ZN 0.4413
2 TAUNET_18:1 0.4042
3 TAUNET_18:2 0.0451
4 TAUGATE_18:A 0.2391
*RES
2 inst_100:ZN TAUNET_18:1 0.0321
3 TAUNET_18:1 TAUNET_18:2 0.4146
4 TAUNET_18:2 TAUGATE_18:A 0.0857
*END

*D_NET TAUNET_45 1.3928
*CONN
*I inst_149:ZN O
*I TAUGATE_45:A I
*CAP
1 inst_149:ZN 0.2245
2 TAUNET_45:1 0.0551
3 TAUNET_45:2 0.1877
4 TAUNET_45:3 0.0973
5 TAUNET_45:4 0.4235
6 TAUNET_45:5 0.1903
7 TAUGATE_45:A 0.2143
*RES
2 inst_149:ZN TAUNET_45:1 0.0701
3 TAUNET_45:1 TAUNET_45:2 0.2421
4 TAUNET_45:2 TAUNET_45:3 0.4634
5 TAUNET_45:3 TAUNET_45:4 0.2497
6 TAUNET_45:4 TAUNET_45:5 0.2766
7 TAUNET_45:5 TAUGATE_45:A 0.3086
*END

*D_NET TAUNET_21 1.1823
*CONN
*I inst_155:ZN O
*I TAUGATE_21:A I
*CAP
1 inst_155:ZN 0.4838
2 TAUNET_21:1 0.3539
3 TAUGATE_21:A 0.3446
*RES
2 inst_155:ZN TAUNET_21:1 0.0192
3 TAUNET_21:1 TAUGATE_21:A 0.1341
*END

*D_NET TAUNET_3 1.7145
*CONN
*I TAUGATE_10:Z O
*I TAUGATE_3:A I
*CAP
1 TAUGATE_10:Z 0.3681
2 TAUNET_3:1 0.1561
3 TAUNET_3:2 0.1347
4 TAUNET_3:3 0.0224
5 TAUNET_3:4 0.3933
6 TAUNET_3:5 0.2244
7 TAUGATE_3:A 0.4154
*RES
2 TAUGATE_10:Z TAUNET_3:1 0.1374
3 TAUNET_3:1 TAUNET_3:2 0.1713
4 TAUNET_3:2 TAUNET_3:3 0.2153
5 TAUNET_3:3 TAUNET_3:4 0.3119
6 TAUNET_3:4 TAUNET_3:5 0.4918
7 TAUNET_3:5 TAUGATE_3:A 0.3583
*END

*D_NET net_145 7.2873
*CONN
*I TAUGATE_13:Z O
*I inst_172:A I
*I inst_104:A2 I
*I inst_169:A1 I
*I inst_161:A1 I
*I inst_170:A1 I
*I inst_171:A1 I
*CAP
1 TAUGATE_13:Z 0.0071