*SPEF "IEEE 1481-1998"
*DESIGN "changes"
*DATE "Tue Dec 02 18:58:51 2014"
*VENDOR "TAU 2015 Contest"
*PROGRAM "Benchmark Parasitic Generator"
*VERSION "0.0"
*DESIGN_FLOW "NETLIST_TYPE_VERILOG"
*DIVIDER /
*DELIMITER :
*BUS_DELIMITER [ ]
*T_UNIT 1 PS
*C_UNIT 1 FF
*R_UNIT 1 KOHM
*L_UNIT 1 UH

*D_NET net_119 1.7439
*CONN
*I TAUGATE_6:Z O
*I inst_72:B I
*CAP
1 TAUGATE_6:Z 0.2611
2 net_119:1 0.4098
3 net_119:2 0.5009
4 net_119:3 0.2843
5 inst_72:B 0.2878
*RES
2 TAUGATE_6:Z net_119:1 0.1659
3 net_119:1 net_119:2 0.2742
4 net_119:2 net_119:3 0.3494
5 net_119:3 inst_72:B 0.1485
*END

*D_NET net_107 5.3632
*CONN
*I TAUGATE_7:Z O
*I inst_148:A2 I
*I inst_142:A2 I
*I inst_141:A2 I
*I inst_147:A2 I
*CAP
1 TAUGATE_7:Z 0.2110
2 net_107:1 0.3070
3 net_107:2 0.3583
4 net_107:3 0.1395
5 net_107:4 0.0646
6 net_107:5 0.0794
7 inst_141:A2 0.2161
8 net_107:6 0.2440
9 net_107:7 0.0332
10 inst_142:A2 0.0406
11 net_107:8 0.3706
12 net_107:9 0.0740
13 net_107:10 0.4871
14 inst_148:A2 0.4951
15 net_107:11 0.3356
16 net_107:12 0.3995
17 net_107:13 0.3845
18 net_107:14 0.4708
19 net_107:15 0.3056
20 inst_147:A2 0.3464
*RES
2 TAUGATE_7:Z net_107:1 0.1614
3 net_107:1 net_107:2 0.3312
4 net_107:2 net_107:3 0.3755
5 net_107:3 net_107:4 0.4644
6 net_107:4 net_107:5 0.4559
7 net_107:5 inst_141:A2 0.4050
8 net_107:2 net_107:6 0.2732
9 net_107:6 net_107:7 0.0073
10 net_107:7 inst_142:A2 0.1308
11 net_107:2 net_107:8 0.4125
12 net_107:8 net_107:9 0.0565
13 net_107:9 net_107:10 0.1285
14 net_107:10 inst_148:A2 0.0292
15 net_107:7 net_107:11 0.0305
16 net_107:11 net_107:12 0.2383
17 net_107:12 net_107:13 0.4020
18 net_107:13 net_107:14 0.2529
19 net_107:14 net_107:15 0.2665
20 net_107:15 inst_147:A2 0.4354
*END

*D_NET TAUNET_9 1.2788
*CONN
*I inst_82:ZN O
*I TAUGATE_9:A I
*CAP
1 inst_82:ZN 0.0788
2 TAUNET_9:1 0.3833
3 TAUNET_9:2 0.3292
4 TAUNET_9:3 0.0716
5 TAUNET_9:4 0.2236
6 TAUGATE_9:A 0.1922
*RES
2 inst_82:ZN TAUNET_9:1 0.2805
3 TAUNET_9:1 TAUNET_9:2 0.1322
4 TAUNET_9:2 TAUNET_9:3 0.1905
5 TAUNET_9:3 TAUNET_9:4 0.4017
6 TAUNET_9:4 TAUGATE_9:A 0.4680
*END

*D_NET TAUNET_5 1.2308
*CONN
*I inst_165:ZN O
*I TAUGATE_5:A I
*CAP
1 inst_165:ZN 0.2331
2 TAUNET_5:1 0.3943
3 TAUNET_5:2 0.2211
4 TAUNET_5:3 0.1955
5 TAUGATE_5:A 0.1868
*RES
2 inst_165:ZN TAUNET_5:1 0.4889
3 TAUNET_5:1 TAUNET_5:2 0.0703
4 TAUNET_5:2 TAUNET_5:3 0.3298
5 TAUNET_5:3 TAUGATE_5:A 0.4131
*END

*D_NET TAUNET_8 1.4221
*CONN
*P n50gat I
*I TAUGATE_8:A I
*CAP
1 n50gat 0.2621
2 TAUNET_8:1 0.1808
3 TAUNET_8:2 0.0717
4 TAUNET_8:3 0.3990
5 TAUNET_8:4 0.4035
6 TAUNET_8:5 0.0219
7 TAUGATE_8:A 0.0830
*RES
2 n50gat TAUNET_8:1 0.4539
3 TAUNET_8:1 TAUNET_8:2 0.1250
4 TAUNET_8:2 TAUNET_8:3 0.3196
5 TAUNET_8:3 TAUNET_8:4 0.4976
6 TAUNET_8:4 TAUNET_8:5 0.3591
7 TAUNET_8:5 TAUGATE_8:A 0.2780
*END

*D_NET net_137 2.6031
*CONN
*I TAUGATE_5:Z O
*I inst_93:B I
*CAP
1 TAUGATE_5:Z 0.1593
2 net_137:1 0.3498
3 net_137:2 0.4055
4 net_137:3 0.4519
5 net_137:4 0.4658
6 net_137:5 0.3690
7 inst_93:B 0.4019
*RES
2 TAUGATE_5:Z net_137:1 0.0632
3 net_137:1 net_137:2 0.2503
4 net_137:2 net_137:3 0.4700
5 net_137:3 net_137:4 0.3789
6 net_137:4 net_137:5 0.3545
7 net_137:5 inst_93:B 0.1033
*END

*D_NET n50gat 3.5289
*CONN
*I TAUGATE_8:Z O
*I inst_19:A I
*I inst_17:A I
*I inst_96:A I
*CAP
1 TAUGATE_8:Z 0.1782
2 n50gat:1 0.0376
3 n50gat:2 0.0972
4 n50gat:3 0.3594
5 n50gat:4 0.0525
6 n50gat:5 0.3248
7 inst_96:A 0.2597
8 n50gat:6 0.4443
9 n50gat:7 0.1288
10 inst_17:A 0.3022
11 n50gat:8 0.4814
12 n50gat:9 0.1341
13 n50gat:10 0.3915
14 n50gat:11 0.0282
15 inst_19:A 0.3089
*RES
2 TAUGATE_8:Z n50gat:1 0.1267
3 n50gat:1 n50gat:2 0.3840
4 n50gat:2 n50gat:3 0.2434
5 n50gat:3 n50gat:4 0.3726
6 n50gat:4 n50gat:5 0.2980
7 n50gat:5 inst_96:A 0.2454
8 n50gat:2 n50gat:6 0.1405
9 n50gat:6 n50gat:7 0.0668
10 n50gat:7 inst_17:A 0.3699
11 n50gat:7 n50gat:8 0.0253
12 n50gat:8 n50gat:9 0.3105
13 n50gat:9 n50gat:10 0.1881
14 n50gat:10 n50gat:11 0.2034
15 n50gat:11 inst_19:A 0.1592
*END

*D_NET TAUNET_6 1.6924
*CONN
*I inst_152:ZN O
*I TAUGATE_6:A I
*CAP
1 inst_152:ZN 0.2761
2 TAUNET_6:1 0.2288
3 TAUNET_6:2 0.0666
4 TAUNET_6:3 0.3854
5 TAUNET_6:4 0.3580
6 TAUGATE_6:A 0.3774
*RES
2 inst_152:ZN TAUNET_6:1 0.2731
3 TAUNET_6:1 TAUNET_6:2 0.1525
4 TAUNET_6:2 TAUNET_6:3 0.0518
5 TAUNET_6:3 TAUNET_6:4 0.2548
6 TAUNET_6:4 TAUGATE_6:A 0.2154
*END

*D_NET n1345gat 0.6418
*CONN
*I TAUGATE_9:Z O
*P n1345gat O
*CAP
1 TAUGATE_9:Z 0.1648
2 n1345gat:1 0.0112
3 n1345gat:2 0.3530
4 n1345gat 0.1128
*RES
2 TAUGATE_9:Z n1345gat:1 0.2239
3 n1345gat:1 n1345gat:2 0.0917
4 n1345gat:2 n1345gat 0.4230
*END

*D_NET TAUNET_7 0.8105
*CONN
*I inst_113:ZN O
*I TAUGATE_7:A I
*CAP
1 inst_113:ZN 0.3290
2 TAUNET_7:1 0.0029
3 TAUNET_7:2 0.2883
4 TAUGATE_7:A 0.1903
*RES
2 inst_113:ZN TAUNET_7:1 0.4381
3 TAUNET_7:1 TAUNET_7:2 0.3484
4 TAUNET_7:2 TAUGATE_7:A 0.0801
*END

