*SPEF "IEEE 1481-1998"
*DESIGN "changes"
*DATE "Tue Dec 02 18:58:52 2014"
*VENDOR "TAU 2015 Contest"
*PROGRAM "Benchmark Parasitic Generator"
*VERSION "0.0"
*DESIGN_FLOW "NETLIST_TYPE_VERILOG"
*DIVIDER /
*DELIMITER :
*BUS_DELIMITER [ ]
*T_UNIT 1 PS
*C_UNIT 1 FF
*R_UNIT 1 KOHM
*L_UNIT 1 UH

*D_NET TAUNET_51 1.7439
*CONN
*I inst_179:ZN O
*I TAUGATE_51:A I
*CAP
1 inst_179:ZN 0.2611
2 TAUNET_51:1 0.4098
3 TAUNET_51:2 0.5009
4 TAUNET_51:3 0.2843
5 TAUGATE_51:A 0.2878
*RES
2 inst_179:ZN TAUNET_51:1 0.1659
3 TAUNET_51:1 TAUNET_51:2 0.2742
4 TAUNET_51:2 TAUNET_51:3 0.3494
5 TAUNET_51:3 TAUGATE_51:A 0.1485
*END

*D_NET TAUNET_245 1.3760
*CONN
*I TAUGATE_62:Z O
*I TAUGATE_245:A I
*CAP
1 TAUGATE_62:Z 0.2110
2 TAUNET_245:1 0.3070
3 TAUNET_245:2 0.3583
4 TAUNET_245:3 0.1395
5 TAUNET_245:4 0.0646
6 TAUNET_245:5 0.0794
7 TAUGATE_245:A 0.2161
*RES
2 TAUGATE_62:Z TAUNET_245:1 0.1614
3 TAUNET_245:1 TAUNET_245:2 0.3312
4 TAUNET_245:2 TAUNET_245:3 0.3755
5 TAUNET_245:3 TAUNET_245:4 0.4644
6 TAUNET_245:4 TAUNET_245:5 0.4559
7 TAUNET_245:5 TAUGATE_245:A 0.4050
*END

*D_NET TAUNET_40 0.4849
*CONN
*I inst_121:ZN O
*I TAUGATE_40:A I
*CAP
1 inst_121:ZN 0.1670
2 TAUNET_40:1 0.2440
3 TAUNET_40:2 0.0332
4 TAUGATE_40:A 0.0406
*RES
2 inst_121:ZN TAUNET_40:1 0.2732
3 TAUNET_40:1 TAUNET_40:2 0.0073
4 TAUNET_40:2 TAUGATE_40:A 0.1308
*END

*D_NET net_43 1.8161
*CONN
*I TAUGATE_15:Z O
*I inst_71:A I
*CAP
1 TAUGATE_15:Z 0.2909
2 net_43:1 0.0740
3 net_43:2 0.4871
4 net_43:3 0.4951
5 net_43:4 0.4125
6 inst_71:A 0.0565
*RES
2 TAUGATE_15:Z net_43:1 0.1285
3 net_43:1 net_43:2 0.0292
4 net_43:2 net_43:3 0.2926
5 net_43:3 net_43:4 0.4507
6 net_43:4 inst_71:A 0.3356
*END

*D_NET net_17 1.9602
*CONN
*I inst_8:Z O
*I inst_35:A I
*CAP
1 inst_8:Z 0.3845
2 net_17:1 0.3056
3 net_17:2 0.3464
4 net_17:3 0.0305
5 net_17:4 0.2383
6 net_17:5 0.4020
7 inst_35:A 0.2529
*RES
2 inst_8:Z net_17:1 0.2665
3 net_17:1 net_17:2 0.4354
4 net_17:2 net_17:3 0.1977
5 net_17:3 net_17:4 0.0788
6 net_17:4 net_17:5 0.3276
7 net_17:5 inst_35:A 0.3833
*END

