*SPEF "IEEE 1481-1998"
*DESIGN "changes"
*DATE "Tue Dec 02 18:58:51 2014"
*VENDOR "TAU 2015 Contest"
*PROGRAM "Benchmark Parasitic Generator"
*VERSION "0.0"
*DESIGN_FLOW "NETLIST_TYPE_VERILOG"
*DIVIDER /
*DELIMITER :
*BUS_DELIMITER [ ]
*T_UNIT 1 PS
*C_UNIT 1 FF
*R_UNIT 1 KOHM
*L_UNIT 1 UH

*D_NET TAUNET_4 1.7439
*CONN
*I inst_6:Z O
*I TAUGATE_4:A I
*CAP
1 inst_6:Z 0.2611
2 TAUNET_4:1 0.4098
3 TAUNET_4:2 0.5009
4 TAUNET_4:3 0.2843
5 TAUGATE_4:A 0.2878
*RES
2 inst_6:Z TAUNET_4:1 0.1659
3 TAUNET_4:1 TAUNET_4:2 0.2742
4 TAUNET_4:2 TAUNET_4:3 0.3494
5 TAUNET_4:3 TAUGATE_4:A 0.1485
*END

*D_NET TAUNET_2 1.3760
*CONN
*I inst_139:ZN O
*I TAUGATE_2:A I
*CAP
1 inst_139:ZN 0.2110
2 TAUNET_2:1 0.3070
3 TAUNET_2:2 0.3583
4 TAUNET_2:3 0.1395
5 TAUNET_2:4 0.0646
6 TAUNET_2:5 0.0794
7 TAUGATE_2:A 0.2161
*RES
2 inst_139:ZN TAUNET_2:1 0.1614
3 TAUNET_2:1 TAUNET_2:2 0.3312
4 TAUNET_2:2 TAUNET_2:3 0.3755
5 TAUNET_2:3 TAUNET_2:4 0.4644
6 TAUNET_2:4 TAUNET_2:5 0.4559
7 TAUNET_2:5 TAUGATE_2:A 0.4050
*END

*D_NET net_15 0.4849
*CONN
*I TAUGATE_4:Z O
*I inst_45:A I
*CAP
1 TAUGATE_4:Z 0.1670
2 net_15:1 0.2440
3 net_15:2 0.0332
4 inst_45:A 0.0406
*RES
2 TAUGATE_4:Z net_15:1 0.2732
3 net_15:1 net_15:2 0.0073
4 net_15:2 inst_45:A 0.1308
*END

*D_NET TAUNET_3 1.8161
*CONN
*P n78gat I
*I TAUGATE_3:A I
*CAP
1 n78gat 0.2909
2 TAUNET_3:1 0.0740
3 TAUNET_3:2 0.4871
4 TAUNET_3:3 0.4951
5 TAUNET_3:4 0.4125
6 TAUGATE_3:A 0.0565
*RES
2 n78gat TAUNET_3:1 0.1285
3 TAUNET_3:1 TAUNET_3:2 0.0292
4 TAUNET_3:2 TAUNET_3:3 0.2926
5 TAUNET_3:3 TAUNET_3:4 0.4507
6 TAUNET_3:4 TAUGATE_3:A 0.3356
*END

*D_NET n78gat 4.2828
*CONN
*I TAUGATE_3:Z O
*I inst_92:A I
*I inst_9:A I
*I inst_10:A I
*CAP
1 TAUGATE_3:Z 0.3845
2 n78gat:1 0.3056
3 n78gat:2 0.3464
4 n78gat:3 0.0305
5 n78gat:4 0.2383
6 n78gat:5 0.4020
7 inst_10:A 0.2529
8 n78gat:6 0.2236
9 inst_9:A 0.1922
10 n78gat:7 0.4680
11 n78gat:8 0.2976
12 n78gat:9 0.2331
13 n78gat:10 0.2927
14 n78gat:11 0.3943
15 inst_92:A 0.2211
*RES
2 TAUGATE_3:Z n78gat:1 0.2665
3 n78gat:1 n78gat:2 0.4354
4 n78gat:2 n78gat:3 0.1977
5 n78gat:3 n78gat:4 0.0788
6 n78gat:4 n78gat:5 0.3276
7 n78gat:5 inst_10:A 0.3833
8 n78gat:4 n78gat:6 0.2805
9 n78gat:6 inst_9:A 0.1322
10 n78gat:3 n78gat:7 0.1955
11 n78gat:7 n78gat:8 0.1868
12 n78gat:8 n78gat:9 0.4889
13 n78gat:9 n78gat:10 0.0703
14 n78gat:10 n78gat:11 0.3298
15 n78gat:11 inst_92:A 0.4131
*END

*D_NET net_95 2.6155
*CONN
*I TAUGATE_2:Z O
*I inst_114:A2 I
*I inst_113:A2 I
*CAP
1 TAUGATE_2:Z 0.2621
2 net_95:1 0.1808
3 net_95:2 0.0717
4 net_95:3 0.3990
5 net_95:4 0.4035
6 net_95:5 0.0219
7 inst_113:A2 0.0830
8 net_95:6 0.4382
9 net_95:7 0.3498
10 inst_114:A2 0.4055
*RES
2 TAUGATE_2:Z net_95:1 0.4539
3 net_95:1 net_95:2 0.1250
4 net_95:2 net_95:3 0.3196
5 net_95:3 net_95:4 0.4976
6 net_95:4 net_95:5 0.3591
7 net_95:5 inst_113:A2 0.2780
8 net_95:2 net_95:6 0.4519
9 net_95:6 net_95:7 0.4658
10 net_95:7 inst_114:A2 0.3690
*END

