*SPEF "IEEE 1481-1998"
*DESIGN "changes"
*DATE "Tue Dec 02 18:58:58 2014"
*VENDOR "TAU 2015 Contest"
*PROGRAM "Benchmark Parasitic Generator"
*VERSION "0.0"
*DESIGN_FLOW "NETLIST_TYPE_VERILOG"
*DIVIDER /
*DELIMITER :
*BUS_DELIMITER [ ]
*T_UNIT 1 PS
*C_UNIT 1 FF
*R_UNIT 1 KOHM
*L_UNIT 1 UH

*D_NET n43gat 4.5250
*CONN
*P n43gat I
*I inst_19:B I
*I inst_97:A I
*I inst_7:A I
*CAP
1 n43gat 0.2611
2 n43gat:1 0.4098
3 n43gat:2 0.5009
4 n43gat:3 0.2843
5 inst_97:A 0.2878
6 n43gat:4 0.4685
7 n43gat:5 0.3070
8 n43gat:6 0.3583
9 inst_19:B 0.1395
10 n43gat:7 0.4644
11 n43gat:8 0.4559
12 n43gat:9 0.4050
13 n43gat:10 0.0154
14 inst_7:A 0.1670
*RES
2 n43gat n43gat:1 0.1659
3 n43gat:1 n43gat:2 0.2742
4 n43gat:2 n43gat:3 0.3494
5 n43gat:3 inst_97:A 0.1485
6 n43gat:3 n43gat:4 0.0646
7 n43gat:4 n43gat:5 0.0794
8 n43gat:5 n43gat:6 0.2161
9 n43gat:6 inst_19:B 0.1614
10 n43gat:4 n43gat:7 0.1555
11 n43gat:7 n43gat:8 0.2440
12 n43gat:8 n43gat:9 0.0332
13 n43gat:9 n43gat:10 0.0406
14 n43gat:10 inst_7:A 0.2732
*END

*D_NET net_107 3.6012
*CONN
*I inst_113:ZN O
*I inst_148:A2 I
*I inst_142:A2 I
*I inst_141:A2 I
*I inst_147:A2 I
*CAP
1 inst_113:ZN 0.1308
2 net_107:1 0.2909
3 net_107:2 0.3706
4 inst_148:A2 0.0740
5 net_107:3 0.2926
6 inst_142:A2 0.4507
7 net_107:4 0.3056
8 net_107:5 0.3464
9 net_107:6 0.0305
10 net_107:7 0.2383
11 net_107:8 0.4020
12 inst_141:A2 0.2529
13 net_107:9 0.2236
14 inst_147:A2 0.1922
*RES
2 inst_113:ZN net_107:1 0.4871
3 net_107:1 net_107:2 0.4951
4 net_107:2 inst_148:A2 0.4125
5 net_107:1 net_107:3 0.3356
6 net_107:3 inst_142:A2 0.3995
7 net_107:3 net_107:4 0.2665
8 net_107:4 net_107:5 0.4354
9 net_107:5 net_107:6 0.1977
10 net_107:6 net_107:7 0.0788
11 net_107:7 net_107:8 0.3276
12 net_107:8 inst_141:A2 0.3833
13 net_107:5 net_107:9 0.2805
14 net_107:9 inst_147:A2 0.1322
*END

*D_NET n190gat 4.3893
*CONN
*P n190gat I
*I inst_76:A I
*I inst_3:A I
*I inst_4:B I
*CAP
1 n190gat 0.4017
2 n190gat:1 0.2976
3 n190gat:2 0.2331
4 n190gat:3 0.2927
5 n190gat:4 0.3943
6 n190gat:5 0.2211
7 inst_3:A 0.1955
8 n190gat:6 0.1808
9 n190gat:7 0.0717
10 n190gat:8 0.3990
11 n190gat:9 0.4035
12 n190gat:10 0.0219
13 inst_76:A 0.0830
14 n190gat:11 0.4382
15 n190gat:12 0.3498
16 inst_4:B 0.4055
*RES
2 n190gat n190gat:1 0.1868
3 n190gat:1 n190gat:2 0.4889
4 n190gat:2 n190gat:3 0.0703
5 n190gat:3 n190gat:4 0.3298
6 n190gat:4 n190gat:5 0.4131
7 n190gat:5 inst_3:A 0.3310
8 n190gat:3 n190gat:6 0.4539
9 n190gat:6 n190gat:7 0.1250
10 n190gat:7 n190gat:8 0.3196
11 n190gat:8 n190gat:9 0.4976
12 n190gat:9 n190gat:10 0.3591
13 n190gat:10 inst_76:A 0.2780
14 n190gat:5 n190gat:11 0.4519
15 n190gat:11 n190gat:12 0.4658
16 n190gat:12 inst_4:B 0.3690
*END

*D_NET net_47 1.3701
*CONN
*I inst_47:ZN O
*I inst_69:A I
*CAP
1 inst_47:ZN 0.0632
2 net_47:1 0.4700
3 net_47:2 0.3789
4 net_47:3 0.3545
5 inst_69:A 0.1033
*RES
2 inst_47:ZN net_47:1 0.4316
3 net_47:1 net_47:2 0.1782
4 net_47:2 net_47:3 0.4734
5 net_47:3 inst_69:A 0.0376
*END

*D_NET n1328gat 0.9439
*CONN
*I inst_99:ZN O
*P n1328gat O
*CAP
1 inst_99:ZN 0.3594
2 n1328gat:1 0.3248
3 n1328gat 0.2597
*RES
2 inst_99:ZN n1328gat:1 0.1267
3 n1328gat:1 n1328gat 0.3840
*END

*D_NET n99gat 4.5756
*CONN
*P n99gat I
*I inst_6:A I
*I inst_5:A I
*I inst_89:A I
*CAP
1 n99gat 0.3726
2 n99gat:1 0.2454
3 n99gat:2 0.4670
4 n99gat:3 0.1921
5 inst_5:A 0.1376
6 n99gat:4 0.4004
7 n99gat:5 0.4814
8 n99gat:6 0.1341
9 n99gat:7 0.3915
10 n99gat:8 0.0282
11 inst_6:A 0.3089
12 n99gat:9 0.2288
13 n99gat:10 0.0666
14 n99gat:11 0.3854
15 n99gat:12 0.3580
16 inst_89:A 0.3774
*RES
2 n99gat n99gat:1 0.4443
3 n99gat:1 n99gat:2 0.1288
4 n99gat:2 n99gat:3 0.3022
5 n99gat:3 inst_5:A 0.1405
6 n99gat:3 n99gat:4 0.0253
7 n99gat:4 n99gat:5 0.3105
8 n99gat:5 n99gat:6 0.1881
9 n99gat:6 n99gat:7 0.2034
10 n99gat:7 n99gat:8 0.1592
11 n99gat:8 inst_6:A 0.3147
12 n99gat:5 n99gat:9 0.2731
13 n99gat:9 n99gat:10 0.1525
14 n99gat:10 n99gat:11 0.0518
15 n99gat:11 n99gat:12 0.2548
16 n99gat:12 inst_89:A 0.2154
*END

*D_NET net_61 0.6418
*CONN
*I inst_53:ZN O
*I inst_58:A I
*CAP
1 inst_53:ZN 0.1648
2 net_61:1 0.0112
3 net_61:2 0.3530
4 inst_58:A 0.1128
*RES
2 inst_53:ZN net_61:1 0.2239
3 net_61:1 net_61:2 0.0917
4 net_61:2 inst_58:A 0.4230
*END

*D_NET n1338gat 0.8105
*CONN
*I inst_89:ZN O
*P n1338gat O
*CAP
1 inst_89:ZN 0.3290
2 n1338gat:1 0.0029
3 n1338gat:2 0.2883
4 n1338gat 0.1903
*RES
2 inst_89:ZN n1338gat:1 0.4381
3 n1338gat:1 n1338gat:2 0.3484
4 n1338gat:2 n1338gat 0.0801
*END

*D_NET net_137 0.2534
*CONN
*I inst_165:ZN O
*I inst_93:B I
*CAP
1 inst_165:ZN 0.1891
2 net_137:1 0.0364
3 inst_93:B 0.0279
*RES
2 inst_165:ZN net_137:1 0.4104
3 net_137:1 inst_93:B 0.0649
*END

*D_NET net_54 1.6384
*CONN
*I inst_42:ZN O
*I inst_55:A I
*I inst_50:A I
*CAP
1 inst_42:ZN 0.1600
2 net_54:1 0.4787
3 net_54:2 0.1076
4 inst_55:A 0.4606
5 net_54:3 0.0580
6 inst_50:A 0.3736
*RES
2 inst_42:ZN net_54:1 0.3388
3 net_54:1 net_54:2 0.4657
4 net_54:2 inst_55:A 0.3595
5 net_54:1 net_54:3 0.0395
6 net_54:3 inst_50:A 0.3644
*END

*D_NET net_132 2.3814
*CONN
*I inst_162:ZN O
*I inst_100:B I
*CAP
1 inst_162:ZN 0.1977
2 net_132:1 0.3877
3 net_132:2 0.3882
4 net_132:3 0.4950
5 net_132:4 0.0413
6 net_132:5 0.4651
7 inst_100:B 0.4065
*RES
2 inst_162:ZN net_132:1 0.3164
3 net_132:1 net_132:2 0.3513
4 net_132:2 net_132:3 0.1165
5 net_132:3 net_132:4 0.0986
6 net_132:4 net_132:5 0.2243
7 net_132:5 inst_100:B 0.1286
*END

*D_NET net_105 9.8459
*CONN
*I inst_71:ZN O
*I inst_125:A2 I
*I inst_140:A1 I
*I inst_155:A1 I
*I inst_142:A1 I
*I inst_107:A2 I
*I inst_146:A1 I
*I inst_120:A1 I
*I inst_122:A1 I
*I inst_124:A2 I
*CAP
1 inst_71:ZN 0.2482
2 net_105:1 0.1533
3 net_105:2 0.4091
4 net_105:3 0.2613
5 inst_122:A1 0.3587
6 net_105:4 0.1014
7 net_105:5 0.0283
8 inst_140:A1 0.2763
9 net_105:6 0.3404
10 net_105:7 0.1317
11 net_105:8 0.3617
12 inst_155:A1 0.0856
13 net_105:9 0.3735
14 net_105:10 0.1079
15 net_105:11 0.3323
16 inst_142:A1 0.2907
17 net_105:12 0.2773
18 inst_107:A2 0.0903
19 net_105:13 0.2443
20 net_105:14 0.2458
21 net_105:15 0.3734
22 net_105:16 0.1567
23 net_105:17 0.1247
24 inst_146:A1 0.2439
25 net_105:18 0.2490
26 net_105:19 0.0579
27 net_105:20 0.0423
28 net_105:21 0.2861
29 net_105:22 0.4278
30 inst_120:A1 0.3875
31 net_105:23 0.4947
32 net_105:24 0.3666
33 inst_125:A2 0.2854
34 net_105:25 0.2264
35 net_105:26 0.3973
36 net_105:27 0.2044
37 net_105:28 0.1531
38 net_105:29 0.3886
39 inst_124:A2 0.2618
*RES
2 inst_71:ZN net_105:1 0.1869
3 net_105:1 net_105:2 0.4974
4 net_105:2 net_105:3 0.3047
5 net_105:3 inst_122:A1 0.1200
6 net_105:1 net_105:4 0.2945
7 net_105:4 net_105:5 0.3177
8 net_105:5 inst_140:A1 0.2101
9 net_105:4 net_105:6 0.3629
10 net_105:6 net_105:7 0.2821
11 net_105:7 net_105:8 0.3900
12 net_105:8 inst_155:A1 0.0557
13 net_105:2 net_105:9 0.0362
14 net_105:9 net_105:10 0.4966
15 net_105:10 net_105:11 0.4101
16 net_105:11 inst_142:A1 0.2702
17 net_105:5 net_105:12 0.0485
18 net_105:12 inst_107:A2 0.4602
19 net_105:11 net_105:13 0.2588
20 net_105:13 net_105:14 0.4474
21 net_105:14 net_105:15 0.3528
22 net_105:15 net_105:16 0.0472
23 net_105:16 net_105:17 0.4436
24 net_105:17 inst_146:A1 0.1981
25 net_105:14 net_105:18 0.4796
26 net_105:18 net_105:19 0.3740
27 net_105:19 net_105:20 0.1554
28 net_105:20 net_105:21 0.0209
29 net_105:21 net_105:22 0.4380
30 net_105:22 inst_120:A1 0.4130
31 net_105:9 net_105:23 0.4464
32 net_105:23 net_105:24 0.2438
33 net_105:24 inst_125:A2 0.2969
34 net_105:15 net_105:25 0.2468
35 net_105:25 net_105:26 0.4002
36 net_105:26 net_105:27 0.3652
37 net_105:27 net_105:28 0.1857
38 net_105:28 net_105:29 0.0562
39 net_105:29 inst_124:A2 0.0882
*END

*D_NET net_62 0.8319
*CONN
*I inst_54:ZN O
*I inst_63:A I
*CAP
1 inst_54:ZN 0.2715
2 net_62:1 0.4145
3 inst_63:A 0.1459
*RES
2 inst_54:ZN net_62:1 0.1130
3 net_62:1 inst_63:A 0.1026
*END

*D_NET net_6 0.4701
*CONN
*I inst_132:ZN O
*I inst_62:B I
*CAP
1 inst_132:ZN 0.1095
2 net_6:1 0.1417
3 inst_62:B 0.2190
*RES
2 inst_132:ZN net_6:1 0.4826
3 net_6:1 inst_62:B 0.1138
*END

*D_NET n176gat 1.9853
*CONN
*P n176gat I
*I inst_20:B I
*I inst_78:A I
*I inst_31:A I
*CAP
1 n176gat 0.3663
2 n176gat:1 0.0526
3 n176gat:2 0.2388
4 n176gat:3 0.1787
5 inst_31:A 0.3603
6 n176gat:4 0.4935
7 inst_78:A 0.2412
8 n176gat:5 0.0266
9 inst_20:B 0.0274
*RES
2 n176gat n176gat:1 0.0603
3 n176gat:1 n176gat:2 0.0863
4 n176gat:2 n176gat:3 0.3102
5 n176gat:3 inst_31:A 0.1239
6 n176gat:2 n176gat:4 0.3995
7 n176gat:4 inst_78:A 0.4441
8 n176gat:4 n176gat:5 0.4218
9 n176gat:5 inst_20:B 0.2061
*END

*D_NET net_129 1.6754
*CONN
*I inst_160:ZN O
*I inst_97:B I
*CAP
1 inst_160:ZN 0.4583
2 net_129:1 0.0145
3 net_129:2 0.0725
4 net_129:3 0.4492
5 net_129:4 0.3124
6 inst_97:B 0.3685
*RES
2 inst_160:ZN net_129:1 0.4317
3 net_129:1 net_129:2 0.1801
4 net_129:2 net_129:3 0.2826
5 net_129:3 net_129:4 0.3420
6 net_129:4 inst_97:B 0.0965
*END

*D_NET net_119 1.1961
*CONN
*I inst_152:ZN O
*I inst_72:B I
*CAP
1 inst_152:ZN 0.1304
2 net_119:1 0.4634
3 net_119:2 0.2869
4 net_119:3 0.1646
5 net_119:4 0.1182
6 inst_72:B 0.0327
*RES
2 inst_152:ZN net_119:1 0.0608
3 net_119:1 net_119:2 0.3721
4 net_119:2 net_119:3 0.4648
5 net_119:3 net_119:4 0.2376
6 net_119:4 inst_72:B 0.1146
*END

*D_NET net_98 0.6447
*CONN
*I inst_142:ZN O
*I inst_83:B I
*CAP
1 inst_142:ZN 0.1439
2 net_98:1 0.2502
3 inst_83:B 0.2506
*RES
2 inst_142:ZN net_98:1 0.4486
3 net_98:1 inst_83:B 0.0641
*END

*D_NET net_23 0.3299
*CONN
*I inst_28:ZN O
*I inst_43:B I
*CAP
1 inst_28:ZN 0.0079
2 net_23:1 0.2219
3 inst_43:B 0.1001
*RES
2 inst_28:ZN net_23:1 0.2747
3 net_23:1 inst_43:B 0.1704
*END

*D_NET net_117 0.1666
*CONN
*I inst_151:ZN O
*I inst_77:B I
*CAP
1 inst_151:ZN 0.0121
2 net_117:1 0.0267
3 inst_77:B 0.1278
*RES
2 inst_151:ZN net_117:1 0.1079
3 net_117:1 inst_77:B 0.3621
*END

*D_NET net_12 2.0149
*CONN
*I inst_4:Z O
*I inst_47:A I
*CAP
1 inst_4:Z 0.3490
2 net_12:1 0.3195
3 net_12:2 0.4748
4 net_12:3 0.2505
5 net_12:4 0.2036
6 net_12:5 0.3990
7 inst_47:A 0.0185
*RES
2 inst_4:Z net_12:1 0.3777
3 net_12:1 net_12:2 0.2437
4 net_12:2 net_12:3 0.3641
5 net_12:3 net_12:4 0.1411
6 net_12:4 net_12:5 0.2452
7 net_12:5 inst_47:A 0.2723
*END

*D_NET net_53 0.3445
*CONN
*I inst_49:ZN O
*I inst_57:A I
*CAP
1 inst_49:ZN 0.2449
2 net_53:1 0.0917
3 inst_57:A 0.0078
*RES
2 inst_49:ZN net_53:1 0.0227
3 net_53:1 inst_57:A 0.0264
*END

*D_NET net_93 4.3236
*CONN
*I inst_106:ZN O
*I inst_179:A1 I
*I inst_113:A1 I
*I inst_111:A1 I
*CAP
1 inst_106:ZN 0.1906
2 net_93:1 0.0937
3 net_93:2 0.2944
4 inst_179:A1 0.3987
5 net_93:3 0.1157
6 net_93:4 0.1901
7 net_93:5 0.2138
8 net_93:6 0.5008
9 net_93:7 0.2979
10 inst_113:A1 0.3428
11 net_93:8 0.3676
12 net_93:9 0.1603
13 net_93:10 0.4423
14 net_93:11 0.1159
15 net_93:12 0.4527
16 inst_111:A1 0.1465
*RES
2 inst_106:ZN net_93:1 0.0209
3 net_93:1 net_93:2 0.1182
4 net_93:2 inst_179:A1 0.1067
5 net_93:2 net_93:3 0.2325
6 net_93:3 net_93:4 0.2733
7 net_93:4 net_93:5 0.1266
8 net_93:5 net_93:6 0.3814
9 net_93:6 net_93:7 0.1363
10 net_93:7 inst_113:A1 0.3277
11 net_93:5 net_93:8 0.1463
12 net_93:8 net_93:9 0.4621
13 net_93:9 net_93:10 0.4065
14 net_93:10 net_93:11 0.0227
15 net_93:11 net_93:12 0.2236
16 net_93:12 inst_111:A1 0.4114
*END

*D_NET n1353gat 0.9678
*CONN
*I inst_74:ZN O
*P n1353gat O
*CAP
1 inst_74:ZN 0.1546
2 n1353gat:1 0.4367
3 n1353gat:2 0.3452
4 n1353gat 0.0313
*RES
2 inst_74:ZN n1353gat:1 0.1217
3 n1353gat:1 n1353gat:2 0.0111
4 n1353gat:2 n1353gat 0.1222
*END

*D_NET net_135 2.0377
*CONN
*I inst_164:ZN O
*I inst_98:B I
*CAP
1 inst_164:ZN 0.1692
2 net_135:1 0.4978
3 net_135:2 0.2563
4 net_135:3 0.2595
5 net_135:4 0.2603
6 net_135:5 0.2874
7 inst_98:B 0.3072
*RES
2 inst_164:ZN net_135:1 0.2768
3 net_135:1 net_135:2 0.1679
4 net_135:2 net_135:3 0.2053
5 net_135:3 net_135:4 0.2140
6 net_135:4 net_135:5 0.3306
7 net_135:5 inst_98:B 0.1569
*END

*D_NET net_130 2.5545
*CONN
*I inst_161:ZN O
*I inst_91:B I
*CAP
1 inst_161:ZN 0.2138
2 net_130:1 0.3806
3 net_130:2 0.4946
4 net_130:3 0.4608
5 net_130:4 0.4692
6 net_130:5 0.4766
7 inst_91:B 0.0589
*RES
2 inst_161:ZN net_130:1 0.0962
3 net_130:1 net_130:2 0.2415
4 net_130:2 net_130:3 0.1750
5 net_130:3 net_130:4 0.4103
6 net_130:4 net_130:5 0.0845
7 net_130:5 inst_91:B 0.1888
*END

*D_NET n1347gat 1.2719
*CONN
*I inst_80:ZN O
*P n1347gat O
*CAP
1 inst_80:ZN 0.1762
2 n1347gat:1 0.0806
3 n1347gat:2 0.0407
4 n1347gat:3 0.2069
5 n1347gat:4 0.0491
6 n1347gat:5 0.4137
7 n1347gat 0.3046
*RES
2 inst_80:ZN n1347gat:1 0.2987
3 n1347gat:1 n1347gat:2 0.2640
4 n1347gat:2 n1347gat:3 0.1831
5 n1347gat:3 n1347gat:4 0.4110
6 n1347gat:4 n1347gat:5 0.0191
7 n1347gat:5 n1347gat 0.3538
*END

*D_NET net_147 0.8608
*CONN
*I inst_171:ZN O
*I inst_103:B I
*CAP
1 inst_171:ZN 0.3629
2 net_147:1 0.2007
3 inst_103:B 0.2971
*RES
2 inst_171:ZN net_147:1 0.4025
3 net_147:1 inst_103:B 0.5010
*END

*D_NET net_127 4.5891
*CONN
*I inst_116:ZN O
*I inst_159:A2 I
*I inst_157:A2 I
*I inst_161:A2 I
*I inst_156:A2 I
*CAP
1 inst_116:ZN 0.4649
2 net_127:1 0.1062
3 inst_161:A2 0.2963
4 net_127:2 0.0616
5 net_127:3 0.4298
6 net_127:4 0.2857
7 net_127:5 0.2634
8 inst_157:A2 0.0470
9 net_127:6 0.4895
10 net_127:7 0.4033
11 net_127:8 0.2734
12 net_127:9 0.3461
13 inst_159:A2 0.3729
14 net_127:10 0.4484
15 net_127:11 0.1379
16 net_127:12 0.1139
17 inst_156:A2 0.0489
*RES
2 inst_116:ZN net_127:1 0.4911
3 net_127:1 inst_161:A2 0.2002
4 net_127:1 net_127:2 0.0745
5 net_127:2 net_127:3 0.1738
6 net_127:3 net_127:4 0.4336
7 net_127:4 net_127:5 0.4556
8 net_127:5 inst_157:A2 0.1284
9 net_127:3 net_127:6 0.0418
10 net_127:6 net_127:7 0.3671
11 net_127:7 net_127:8 0.3815
12 net_127:8 net_127:9 0.1458
13 net_127:9 inst_159:A2 0.4915
14 net_127:1 net_127:10 0.0861
15 net_127:10 net_127:11 0.1477
16 net_127:11 net_127:12 0.4806
17 net_127:12 inst_156:A2 0.3473
*END

*D_NET net_14 0.8999
*CONN
*I inst_5:Z O
*I inst_41:A I
*CAP
1 inst_5:Z 0.0198
2 net_14:1 0.1100
3 net_14:2 0.2818
4 net_14:3 0.3290
5 inst_41:A 0.1592
*RES
2 inst_5:Z net_14:1 0.4236
3 net_14:1 net_14:2 0.3328
4 net_14:2 net_14:3 0.1906
5 net_14:3 inst_41:A 0.5003
*END

*D_NET n1351gat 1.0480
*CONN
*I inst_76:ZN O
*P n1351gat O
*CAP
1 inst_76:ZN 0.3044
2 n1351gat:1 0.0096
3 n1351gat:2 0.4963
4 n1351gat 0.2377
*RES
2 inst_76:ZN n1351gat:1 0.2571
3 n1351gat:1 n1351gat:2 0.3610
4 n1351gat:2 n1351gat 0.0042
*END

*D_NET net_113 1.5525
*CONN
*I inst_149:ZN O
*I inst_74:B I
*CAP
1 inst_149:ZN 0.3841
2 net_113:1 0.2352
3 net_113:2 0.3112
4 net_113:3 0.1345
5 net_113:4 0.4134
6 inst_74:B 0.0741
*RES
2 inst_149:ZN net_113:1 0.4290
3 net_113:1 net_113:2 0.4891
4 net_113:2 net_113:3 0.0621
5 net_113:3 net_113:4 0.2122
6 net_113:4 inst_74:B 0.2034
*END

*D_NET n204gat 2.3435
*CONN
*P n204gat I
*I inst_20:A I
*I inst_74:A I
*I inst_12:A I
*CAP
1 n204gat 0.2112
2 n204gat:1 0.1106
3 n204gat:2 0.0283
4 n204gat:3 0.2644
5 inst_20:A 0.3395
6 n204gat:4 0.0520
7 n204gat:5 0.1787
8 n204gat:6 0.3277
9 inst_74:A 0.2308
10 n204gat:7 0.3450
11 inst_12:A 0.2552
*RES
2 n204gat n204gat:1 0.4160
3 n204gat:1 n204gat:2 0.1311
4 n204gat:2 n204gat:3 0.1702
5 n204gat:3 inst_20:A 0.0535
6 n204gat:2 n204gat:4 0.1825
7 n204gat:4 n204gat:5 0.4154
8 n204gat:5 n204gat:6 0.4205
9 n204gat:6 inst_74:A 0.1921
10 n204gat:4 n204gat:7 0.2397
11 n204gat:7 inst_12:A 0.3943
*END

*D_NET net_26 1.1705
*CONN
*I inst_13:Z O
*I inst_46:A I
*CAP
1 inst_13:Z 0.3586
2 net_26:1 0.2132
3 net_26:2 0.3448
4 inst_46:A 0.2539
*RES
2 inst_13:Z net_26:1 0.0169
3 net_26:1 net_26:2 0.2910
4 net_26:2 inst_46:A 0.3418
*END

*D_NET net_76 1.0972
*CONN
*I inst_179:ZN O
*I inst_104:A3 I
*CAP
1 inst_179:ZN 0.2232
2 net_76:1 0.3825
3 inst_104:A3 0.4916
*RES
2 inst_179:ZN net_76:1 0.0258
3 net_76:1 inst_104:A3 0.0722
*END

*D_NET net_32 0.1761
*CONN
*I inst_17:Z O
*I inst_33:A I
*CAP
1 inst_17:Z 0.0274
2 net_32:1 0.0758
3 inst_33:A 0.0730
*RES
2 inst_17:Z net_32:1 0.2996
3 net_32:1 inst_33:A 0.1500
*END

*D_NET net_101 1.1459
*CONN
*I inst_143:ZN O
*I inst_84:B I
*CAP
1 inst_143:ZN 0.0605
2 net_101:1 0.4347
3 net_101:2 0.2976
4 inst_84:B 0.3531
*RES
2 inst_143:ZN net_101:1 0.0316
3 net_101:1 net_101:2 0.1823
4 net_101:2 inst_84:B 0.0755
*END

*D_NET net_111 1.5885
*CONN
*I inst_135:ZN O
*I inst_118:A1 I
*I inst_116:A1 I
*CAP
1 inst_135:ZN 0.3515
2 net_111:1 0.4269
3 net_111:2 0.0493
4 net_111:3 0.0341
5 inst_116:A1 0.3020
6 net_111:4 0.3051
7 inst_118:A1 0.1197
*RES
2 inst_135:ZN net_111:1 0.3389
3 net_111:1 net_111:2 0.4000
4 net_111:2 net_111:3 0.0188
5 net_111:3 inst_116:A1 0.4709
6 net_111:2 net_111:4 0.2956
7 net_111:4 inst_118:A1 0.2210
*END

*D_NET n1332gat 1.0352
*CONN
*I inst_95:ZN O
*P n1332gat O
*CAP
1 inst_95:ZN 0.2798
2 n1332gat:1 0.0137
3 n1332gat:2 0.2108
4 n1332gat:3 0.3101
5 n1332gat:4 0.0161
6 n1332gat 0.2047
*RES
2 inst_95:ZN n1332gat:1 0.3729
3 n1332gat:1 n1332gat:2 0.0610
4 n1332gat:2 n1332gat:3 0.4010
5 n1332gat:3 n1332gat:4 0.2910
6 n1332gat:4 n1332gat 0.3768
*END

*D_NET n1329gat 1.4722
*CONN
*I inst_98:ZN O
*P n1329gat O
*CAP
1 inst_98:ZN 0.1250
2 n1329gat:1 0.3715
3 n1329gat:2 0.3144
4 n1329gat:3 0.3618
5 n1329gat:4 0.0820
6 n1329gat 0.2174
*RES
2 inst_98:ZN n1329gat:1 0.3638
3 n1329gat:1 n1329gat:2 0.4097
4 n1329gat:2 n1329gat:3 0.2418
5 n1329gat:3 n1329gat:4 0.4080
6 n1329gat:4 n1329gat 0.3118
*END

*D_NET net_40 1.5302
*CONN
*I inst_33:ZN O
*I inst_67:A I
*CAP
1 inst_33:ZN 0.3134
2 net_40:1 0.1396
3 net_40:2 0.0910
4 net_40:3 0.1278
5 net_40:4 0.3093
6 net_40:5 0.3342
7 inst_67:A 0.2150
*RES
2 inst_33:ZN net_40:1 0.0109
3 net_40:1 net_40:2 0.1830
4 net_40:2 net_40:3 0.2298
5 net_40:3 net_40:4 0.0712
6 net_40:4 net_40:5 0.0044
7 net_40:5 inst_67:A 0.1986
*END

*D_NET net_90 1.1869
*CONN
*I inst_119:ZN O
*I inst_138:A2 I
*I inst_139:A2 I
*CAP
1 inst_119:ZN 0.0521
2 net_90:1 0.0043
3 inst_138:A2 0.2737
4 net_90:2 0.2784
5 net_90:3 0.2008
6 inst_139:A2 0.3776
*RES
2 inst_119:ZN net_90:1 0.4724
3 net_90:1 inst_138:A2 0.2677
4 net_90:1 net_90:2 0.2937
5 net_90:2 net_90:3 0.0093
6 net_90:3 inst_139:A2 0.2822
*END

*D_NET net_100 1.9213
*CONN
*I inst_134:ZN O
*I inst_115:A1 I
*I inst_117:A1 I
*CAP
1 inst_134:ZN 0.0309
2 net_100:1 0.3809
3 net_100:2 0.3567
4 inst_117:A1 0.3242
5 net_100:3 0.2185
6 net_100:4 0.2266
7 net_100:5 0.2538
8 inst_115:A1 0.1297
*RES
2 inst_134:ZN net_100:1 0.2336
3 net_100:1 net_100:2 0.3863
4 net_100:2 inst_117:A1 0.2365
5 net_100:2 net_100:3 0.4791
6 net_100:3 net_100:4 0.2417
7 net_100:4 net_100:5 0.2444
8 net_100:5 inst_115:A1 0.4262
*END

*D_NET n8gat 2.5531
*CONN
*P n8gat I
*I inst_102:A I
*I inst_0:A I
*I inst_23:A I
*CAP
1 n8gat 0.3015
2 n8gat:1 0.3035
3 n8gat:2 0.4053
4 inst_23:A 0.0863
5 n8gat:3 0.3711
6 n8gat:4 0.0512
7 inst_0:A 0.1351
8 n8gat:5 0.1146
9 n8gat:6 0.3234
10 inst_102:A 0.4610
*RES
2 n8gat n8gat:1 0.2362
3 n8gat:1 n8gat:2 0.1365
4 n8gat:2 inst_23:A 0.0277
5 n8gat:2 n8gat:3 0.0984
6 n8gat:3 n8gat:4 0.0368
7 n8gat:4 inst_0:A 0.4376
8 n8gat:1 n8gat:5 0.4832
9 n8gat:5 n8gat:6 0.2776
10 n8gat:6 inst_102:A 0.3781
*END

*D_NET net_85 1.1921
*CONN
*I inst_122:ZN O
*I inst_119:A1 I
*CAP
1 inst_122:ZN 0.0185
2 net_85:1 0.1588
3 net_85:2 0.3738
4 net_85:3 0.4556
5 net_85:4 0.1835
6 inst_119:A1 0.0020
*RES
2 inst_122:ZN net_85:1 0.2614
3 net_85:1 net_85:2 0.3010
4 net_85:2 net_85:3 0.2164
5 net_85:3 net_85:4 0.4372
6 net_85:4 inst_119:A1 0.1158
*END

*D_NET net_69 1.1191
*CONN
*I inst_61:ZN O
*I inst_64:B I
*CAP
1 inst_61:ZN 0.3810
2 net_69:1 0.1662
3 net_69:2 0.3178
4 inst_64:B 0.2541
*RES
2 inst_61:ZN net_69:1 0.2497
3 net_69:1 net_69:2 0.4625
4 net_69:2 inst_64:B 0.2343
*END

*D_NET n225gat 1.0962
*CONN
*P n225gat I
*I inst_126:A1 I
*CAP
1 n225gat 0.3461
2 n225gat:1 0.4109
3 n225gat:2 0.0945
4 n225gat:3 0.2326
5 inst_126:A1 0.0121
*RES
2 n225gat n225gat:1 0.2674
3 n225gat:1 n225gat:2 0.2072
4 n225gat:2 n225gat:3 0.0414
5 n225gat:3 inst_126:A1 0.2455
*END

*D_NET net_124 1.7627
*CONN
*I inst_156:ZN O
*I inst_88:B I
*CAP
1 inst_156:ZN 0.0138
2 net_124:1 0.3131
3 net_124:2 0.4392
4 net_124:3 0.4048
5 net_124:4 0.0368
6 net_124:5 0.3283
7 inst_88:B 0.2266
*RES
2 inst_156:ZN net_124:1 0.4199
3 net_124:1 net_124:2 0.3736
4 net_124:2 net_124:3 0.3306
5 net_124:3 net_124:4 0.3042
6 net_124:4 net_124:5 0.1317
7 net_124:5 inst_88:B 0.1481
*END

*D_NET n57gat 3.8948
*CONN
*P n57gat I
*I inst_2:B I
*I inst_95:A I
*I inst_18:B I
*CAP
1 n57gat 0.2201
2 n57gat:1 0.3013
3 n57gat:2 0.0758
4 n57gat:3 0.0262
5 inst_95:A 0.3812
6 n57gat:4 0.2523
7 n57gat:5 0.0497
8 n57gat:6 0.4938
9 n57gat:7 0.3913
10 inst_2:B 0.2131
11 n57gat:8 0.1740
12 n57gat:9 0.2701
13 n57gat:10 0.3351
14 n57gat:11 0.4105
15 inst_18:B 0.3004
*RES
2 n57gat n57gat:1 0.0656
3 n57gat:1 n57gat:2 0.1550
4 n57gat:2 n57gat:3 0.0047
5 n57gat:3 inst_95:A 0.1418
6 n57gat:2 n57gat:4 0.3201
7 n57gat:4 n57gat:5 0.0320
8 n57gat:5 n57gat:6 0.2786
9 n57gat:6 n57gat:7 0.3378
10 n57gat:7 inst_2:B 0.4364
11 n57gat:4 n57gat:8 0.3665
12 n57gat:8 n57gat:9 0.1341
13 n57gat:9 n57gat:10 0.0859
14 n57gat:10 n57gat:11 0.1706
15 n57gat:11 inst_18:B 0.3812
*END

*D_NET net_141 0.4838
*CONN
*I inst_167:ZN O
*I inst_94:B I
*CAP
1 inst_167:ZN 0.1227
2 net_141:1 0.0059
3 inst_94:B 0.3552
*RES
2 inst_167:ZN net_141:1 0.3839
3 net_141:1 inst_94:B 0.1840
*END

*D_NET n1330gat 2.5126
*CONN
*I inst_97:ZN O
*P n1330gat O
*CAP
1 inst_97:ZN 0.3573
2 n1330gat:1 0.3575
3 n1330gat:2 0.1715
4 n1330gat:3 0.3050
5 n1330gat:4 0.3594
6 n1330gat:5 0.4902
7 n1330gat 0.4716
*RES
2 inst_97:ZN n1330gat:1 0.2112
3 n1330gat:1 n1330gat:2 0.1762
4 n1330gat:2 n1330gat:3 0.1166
5 n1330gat:3 n1330gat:4 0.1660
6 n1330gat:4 n1330gat:5 0.2177
7 n1330gat:5 n1330gat 0.2908
*END

*D_NET net_83 1.2533
*CONN
*I inst_121:ZN O
*I inst_119:A3 I
*CAP
1 inst_121:ZN 0.3308
2 net_83:1 0.4669
3 net_83:2 0.1932
4 net_83:3 0.0675
5 net_83:4 0.0053
6 net_83:5 0.1459
7 inst_119:A3 0.0437
*RES
2 inst_121:ZN net_83:1 0.4598
3 net_83:1 net_83:2 0.3838
4 net_83:2 net_83:3 0.2033
5 net_83:3 net_83:4 0.3263
6 net_83:4 net_83:5 0.4574
7 net_83:5 inst_119:A3 0.4683
*END

*D_NET net_115 6.5441
*CONN
*I inst_112:ZN O
*I inst_150:A2 I
*I inst_140:A2 I
*I inst_151:A2 I
*I inst_154:A2 I
*CAP
1 inst_112:ZN 0.4873
2 net_115:1 0.4800
3 net_115:2 0.4518
4 inst_140:A2 0.0570
5 net_115:3 0.2594
6 net_115:4 0.3565
7 net_115:5 0.4074
8 net_115:6 0.4309
9 net_115:7 0.4474
10 inst_150:A2 0.2931
11 net_115:8 0.4663
12 net_115:9 0.2866
13 net_115:10 0.1873
14 net_115:11 0.1599
15 net_115:12 0.3589
16 inst_151:A2 0.4697
17 net_115:13 0.4162
18 net_115:14 0.1285
19 net_115:15 0.0491
20 inst_154:A2 0.3511
*RES
2 inst_112:ZN net_115:1 0.4909
3 net_115:1 net_115:2 0.0572
4 net_115:2 inst_140:A2 0.5008
5 net_115:1 net_115:3 0.2848
6 net_115:3 net_115:4 0.2246
7 net_115:4 net_115:5 0.3320
8 net_115:5 net_115:6 0.3870
9 net_115:6 net_115:7 0.3663
10 net_115:7 inst_150:A2 0.1512
11 net_115:2 net_115:8 0.4844
12 net_115:8 net_115:9 0.0401
13 net_115:9 net_115:10 0.2861
14 net_115:10 net_115:11 0.1883
15 net_115:11 net_115:12 0.3075
16 net_115:12 inst_151:A2 0.0604
17 net_115:10 net_115:13 0.2111
18 net_115:13 net_115:14 0.3010
19 net_115:14 net_115:15 0.1515
20 net_115:15 inst_154:A2 0.0492
*END

*D_NET n1345gat 1.1227
*CONN
*I inst_82:ZN O
*P n1345gat O
*CAP
1 inst_82:ZN 0.0711
2 n1345gat:1 0.0021
3 n1345gat:2 0.2080
4 n1345gat:3 0.3529
5 n1345gat 0.4886
*RES
2 inst_82:ZN n1345gat:1 0.3648
3 n1345gat:1 n1345gat:2 0.4404
4 n1345gat:2 n1345gat:3 0.3187
5 n1345gat:3 n1345gat 0.4272
*END

*D_NET n120gat 4.0630
*CONN
*P n120gat I
*I inst_15:A I
*I inst_86:A I
*I inst_28:B I
*CAP
1 n120gat 0.4026
2 n120gat:1 0.1803
3 n120gat:2 0.0882
4 n120gat:3 0.2924
5 inst_15:A 0.4780
6 n120gat:4 0.0762
7 n120gat:5 0.1986
8 n120gat:6 0.3922
9 n120gat:7 0.3950
10 n120gat:8 0.2666
11 inst_86:A 0.4255
12 n120gat:9 0.3579
13 n120gat:10 0.1300
14 inst_28:B 0.3795
*RES
2 n120gat n120gat:1 0.3510
3 n120gat:1 n120gat:2 0.1182
4 n120gat:2 n120gat:3 0.2614
5 n120gat:3 inst_15:A 0.1530
6 n120gat:2 n120gat:4 0.4671
7 n120gat:4 n120gat:5 0.2972
8 n120gat:5 n120gat:6 0.3936
9 n120gat:6 n120gat:7 0.4880
10 n120gat:7 n120gat:8 0.4169
11 n120gat:8 inst_86:A 0.3167
12 n120gat:6 n120gat:9 0.2362
13 n120gat:9 n120gat:10 0.1908
14 n120gat:10 inst_28:B 0.1996
*END

*D_NET net_4 0.4571
*CONN
*I inst_130:ZN O
*I inst_57:B I
*CAP
1 inst_130:ZN 0.1251
2 net_4:1 0.3126
3 inst_57:B 0.0195
*RES
2 inst_130:ZN net_4:1 0.0541
3 net_4:1 inst_57:B 0.3700
*END

*D_NET net_95 2.7211
*CONN
*I inst_139:ZN O
*I inst_114:A2 I
*I inst_113:A2 I
*CAP
1 inst_139:ZN 0.3466
2 net_95:1 0.4038
3 net_95:2 0.1954
4 net_95:3 0.0063
5 net_95:4 0.4904
6 net_95:5 0.0915
7 inst_113:A2 0.4619
8 net_95:6 0.0765
9 net_95:7 0.1980
10 net_95:8 0.3226
11 inst_114:A2 0.1282
*RES
2 inst_139:ZN net_95:1 0.1065
3 net_95:1 net_95:2 0.1990
4 net_95:2 net_95:3 0.2576
5 net_95:3 net_95:4 0.0690
6 net_95:4 net_95:5 0.2231
7 net_95:5 inst_113:A2 0.2934
8 net_95:1 net_95:6 0.2766
9 net_95:6 net_95:7 0.4045
10 net_95:7 net_95:8 0.4267
11 net_95:8 inst_114:A2 0.4596
*END

*D_NET net_78 2.7036
*CONN
*I inst_109:ZN O
*I inst_139:A1 I
*I inst_110:A1 I
*CAP
1 inst_109:ZN 0.4724
2 net_78:1 0.0407
3 net_78:2 0.4130
4 net_78:3 0.3462
5 net_78:4 0.0714
6 net_78:5 0.2110
7 inst_110:A1 0.2588
8 net_78:6 0.1540
9 net_78:7 0.0325
10 net_78:8 0.0924
11 net_78:9 0.1850
12 net_78:10 0.1516
13 inst_139:A1 0.2746
*RES
2 inst_109:ZN net_78:1 0.0339
3 net_78:1 net_78:2 0.0519
4 net_78:2 net_78:3 0.4874
5 net_78:3 net_78:4 0.0374
6 net_78:4 net_78:5 0.2489
7 net_78:5 inst_110:A1 0.2584
8 net_78:4 net_78:6 0.4228
9 net_78:6 net_78:7 0.1417
10 net_78:7 net_78:8 0.3754
11 net_78:8 net_78:9 0.2016
12 net_78:9 net_78:10 0.0068
13 net_78:10 inst_139:A1 0.2001
*END

*D_NET net_27 1.0932
*CONN
*I inst_14:Z O
*I inst_34:A I
*CAP
1 inst_14:Z 0.4926
2 net_27:1 0.3810
3 inst_34:A 0.2195
*RES
2 inst_14:Z net_27:1 0.2042
3 net_27:1 inst_34:A 0.2030
*END

*D_NET net_56 1.9497
*CONN
*I inst_39:ZN O
*I inst_55:B I
*I inst_51:B I
*CAP
1 inst_39:ZN 0.4413
2 net_56:1 0.4042
3 net_56:2 0.0451
4 inst_51:B 0.2391
5 net_56:3 0.4797
6 net_56:4 0.0551
7 net_56:5 0.1877
8 inst_55:B 0.0973
*RES
2 inst_39:ZN net_56:1 0.0321
3 net_56:1 net_56:2 0.4146
4 net_56:2 inst_51:B 0.0857
5 net_56:2 net_56:3 0.4235
6 net_56:3 net_56:4 0.1903
7 net_56:4 net_56:5 0.2143
8 net_56:5 inst_55:B 0.0701
*END

*D_NET net_87 1.7676
*CONN
*I inst_123:ZN O
*I inst_119:A2 I
*CAP
1 inst_123:ZN 0.4634
2 net_87:1 0.2766
3 net_87:2 0.3086
4 net_87:3 0.2353
5 inst_119:A2 0.4838
*RES
2 inst_123:ZN net_87:1 0.0722
3 net_87:1 net_87:2 0.3539
4 net_87:2 net_87:3 0.3446
5 net_87:3 inst_119:A2 0.0192
*END

*D_NET net_0 1.5540
*CONN
*I inst_126:ZN O
*I inst_61:B I
*CAP
1 inst_126:ZN 0.4054
2 net_0:1 0.4419
3 net_0:2 0.1561
4 net_0:3 0.1347
5 net_0:4 0.0224
6 inst_61:B 0.3933
*RES
2 inst_126:ZN net_0:1 0.2244
3 net_0:1 net_0:2 0.4154
4 net_0:2 net_0:3 0.1374
5 net_0:3 net_0:4 0.1713
6 net_0:4 inst_61:B 0.2153
*END

*D_NET n232gat 1.6905
*CONN
*P n232gat I
*I inst_130:A1 I
*CAP
1 n232gat 0.4918
2 n232gat:1 0.0251
3 n232gat:2 0.0071
4 n232gat:3 0.2242
5 n232gat:4 0.4834
6 inst_130:A1 0.4589
*RES
2 n232gat n232gat:1 0.0098
3 n232gat:1 n232gat:2 0.3264
4 n232gat:2 n232gat:3 0.2846
5 n232gat:3 n232gat:4 0.4721
6 n232gat:4 inst_130:A1 0.1185
*END

*D_NET n211gat 3.4351
*CONN
*P n211gat I
*I inst_11:B I
*I inst_25:A I
*I inst_73:A I
*CAP
1 n211gat 0.3703
2 n211gat:1 0.4409
3 inst_73:A 0.4335
4 n211gat:2 0.4909
5 n211gat:3 0.2285
6 n211gat:4 0.2293
7 n211gat:5 0.4514
8 inst_25:A 0.1489
9 n211gat:6 0.0682
10 n211gat:7 0.0813
11 n211gat:8 0.2235
12 n211gat:9 0.0018
13 inst_11:B 0.2665
*RES
2 n211gat n211gat:1 0.3158
3 n211gat:1 inst_73:A 0.2513
4 n211gat:1 n211gat:2 0.3442
5 n211gat:2 n211gat:3 0.1815
6 n211gat:3 n211gat:4 0.2112
7 n211gat:4 n211gat:5 0.3238
8 n211gat:5 inst_25:A 0.1536
9 n211gat:3 n211gat:6 0.4580
10 n211gat:6 n211gat:7 0.4392
11 n211gat:7 n211gat:8 0.4660
12 n211gat:8 n211gat:9 0.3296
13 n211gat:9 inst_11:B 0.2711
*END

*D_NET net_35 0.7880
*CONN
*I inst_19:Z O
*I inst_32:A I
*CAP
1 inst_19:Z 0.1130
2 net_35:1 0.2913
3 inst_32:A 0.3837
*RES
2 inst_19:Z net_35:1 0.4308
3 net_35:1 inst_32:A 0.4593
*END

*D_NET net_22 1.7533
*CONN
*I inst_27:ZN O
*I inst_47:B I
*CAP
1 inst_27:ZN 0.1666
2 net_22:1 0.2000
3 net_22:2 0.4330
4 net_22:3 0.3792
5 net_22:4 0.3945
6 net_22:5 0.1168
7 inst_47:B 0.0632
*RES
2 inst_27:ZN net_22:1 0.3389
3 net_22:1 net_22:2 0.2267
4 net_22:2 net_22:3 0.0022
5 net_22:3 net_22:4 0.3986
6 net_22:4 net_22:5 0.0342
7 net_22:5 inst_47:B 0.1492
*END

*D_NET net_16 1.6661
*CONN
*I inst_7:Z O
*I inst_45:B I
*CAP
1 inst_7:Z 0.2299
2 net_16:1 0.0789
3 net_16:2 0.1418
4 net_16:3 0.2162
5 net_16:4 0.3480
6 net_16:5 0.3423
7 inst_45:B 0.3091
*RES
2 inst_7:Z net_16:1 0.3077
3 net_16:1 net_16:2 0.0259
4 net_16:2 net_16:3 0.3818
5 net_16:3 net_16:4 0.2326
6 net_16:4 net_16:5 0.3632
7 net_16:5 inst_45:B 0.2277
*END

*D_NET n64gat 2.5601
*CONN
*P n64gat I
*I inst_1:B I
*I inst_18:A I
*I inst_94:A I
*CAP
1 n64gat 0.3067
2 n64gat:1 0.0694
3 n64gat:2 0.1731
4 n64gat:3 0.0340
5 inst_1:B 0.1910
6 n64gat:4 0.0975
7 n64gat:5 0.1398
8 n64gat:6 0.3850
9 inst_18:A 0.2235
10 n64gat:7 0.3040
11 n64gat:8 0.3068
12 n64gat:9 0.1313
13 n64gat:10 0.0490
14 inst_94:A 0.1490
*RES
2 n64gat n64gat:1 0.0233
3 n64gat:1 n64gat:2 0.1519
4 n64gat:2 n64gat:3 0.4158
5 n64gat:3 inst_1:B 0.0326
6 n64gat:2 n64gat:4 0.2530
7 n64gat:4 n64gat:5 0.0538
8 n64gat:5 n64gat:6 0.1085
9 n64gat:6 inst_18:A 0.3839
10 n64gat:2 n64gat:7 0.4082
11 n64gat:7 n64gat:8 0.0586
12 n64gat:8 n64gat:9 0.2553
13 n64gat:9 n64gat:10 0.4766
14 n64gat:10 inst_94:A 0.4662
*END

*D_NET net_39 1.9294
*CONN
*I inst_23:Z O
*I inst_40:A I
*CAP
1 inst_23:Z 0.3524
2 net_39:1 0.3838
3 net_39:2 0.2328
4 net_39:3 0.0616
5 net_39:4 0.3670
6 net_39:5 0.3852
7 inst_40:A 0.1467
*RES
2 inst_23:Z net_39:1 0.2409
3 net_39:1 net_39:2 0.4071
4 net_39:2 net_39:3 0.2078
5 net_39:3 net_39:4 0.1018
6 net_39:4 net_39:5 0.2212
7 net_39:5 inst_40:A 0.0552
*END

*D_NET n92gat 2.1877
*CONN
*P n92gat I
*I inst_24:A I
*I inst_90:A I
*I inst_1:A I
*CAP
1 n92gat 0.2527
2 n92gat:1 0.0298
3 inst_90:A 0.3266
4 n92gat:2 0.1497
5 n92gat:3 0.2415
6 inst_24:A 0.4946
7 n92gat:4 0.3748
8 inst_1:A 0.3179
*RES
2 n92gat n92gat:1 0.3430
3 n92gat:1 inst_90:A 0.0062
4 n92gat:1 n92gat:2 0.2980
5 n92gat:2 n92gat:3 0.1661
6 n92gat:3 inst_24:A 0.4120