*SPEF "IEEE 1481-1998"
*DESIGN "changes"
*DATE "Tue Dec 02 20:48:18 2014"
*VENDOR "TAU 2015 Contest"
*PROGRAM "Benchmark Parasitic Generator"
*VERSION "0.0"
*DESIGN_FLOW "NETLIST_TYPE_VERILOG"
*DIVIDER /
*DELIMITER :
*BUS_DELIMITER [ ]
*T_UNIT 1 PS
*C_UNIT 1 FF
*R_UNIT 1 KOHM
*L_UNIT 1 UH

*D_NET net_157 1.7439
*CONN
*I inst_76:ZN O
*I inst_111:A1 I
*CAP
1 inst_76:ZN 0.2611
2 net_157:1 0.4098
3 net_157:2 0.5009
4 net_157:3 0.2843
5 inst_111:A1 0.2878
*RES
2 inst_76:ZN net_157:1 0.1659
3 net_157:1 net_157:2 0.2742
4 net_157:2 net_157:3 0.3494
5 net_157:3 inst_111:A1 0.1485
*END

*D_NET TAUNET_348 1.3760
*CONN
*I TAUGATE_150:Z O
*I TAUGATE_348:A I
*CAP
1 TAUGATE_150:Z 0.2110
2 TAUNET_348:1 0.3070
3 TAUNET_348:2 0.3583
4 TAUNET_348:3 0.1395
5 TAUNET_348:4 0.0646
6 TAUNET_348:5 0.0794
7 TAUGATE_348:A 0.2161
*RES
2 TAUGATE_150:Z TAUNET_348:1 0.1614
3 TAUNET_348:1 TAUNET_348:2 0.3312
4 TAUNET_348:2 TAUNET_348:3 0.3755
5 TAUNET_348:3 TAUNET_348:4 0.4644
6 TAUNET_348:4 TAUNET_348:5 0.4559
7 TAUNET_348:5 TAUGATE_348:A 0.4050
*END

*D_NET TAUNET_236 4.1543
*CONN
*I TAUGATE_242:Z O
*I TAUGATE_236:A I
*I inst_34:A2 I
*I inst_60:A2 I
*CAP
1 TAUGATE_242:Z 0.1670
2 TAUNET_236:1 0.2440
3 TAUNET_236:2 0.0332
4 TAUGATE_236:A 0.0406
5 TAUNET_236:3 0.3706
6 TAUNET_236:4 0.0740
7 TAUNET_236:5 0.4871
8 inst_34:A2 0.4951
9 TAUNET_236:6 0.3356
10 TAUNET_236:7 0.3995
11 TAUNET_236:8 0.3845
12 TAUNET_236:9 0.4708
13 TAUNET_236:10 0.3056
14 inst_60:A2 0.3464
*RES
2 TAUGATE_242:Z TAUNET_236:1 0.2732
3 TAUNET_236:1 TAUNET_236:2 0.0073
4 TAUNET_236:2 TAUGATE_236:A 0.1308
5 TAUNET_236:1 TAUNET_236:3 0.4125
6 TAUNET_236:3 TAUNET_236:4 0.0565
7 TAUNET_236:4 TAUNET_236:5 0.1285
8 TAUNET_236:5 inst_34:A2 0.0292
9 TAUNET_236:3 TAUNET_236:6 0.0305
10 TAUNET_236:6 TAUNET_236:7 0.2383
11 TAUNET_236:7 TAUNET_236:8 0.4020
12 TAUNET_236:8 TAUNET_236:9 0.2529
13 TAUNET_236:9 TAUNET_236:10 0.2665
14 TAUNET_236:10 inst_60:A2 0.4354
*END

*D_NET TAUNET_29 1.2788
*CONN
*I inst_149:ZN O
*I TAUGATE_29:A I
*CAP
1 inst_149:ZN 0.0788
2 TAUNET_29:1 0.3833
3 TAUNET_29:2 0.3292
4 TAUNET_29:3 0.0716
5 TAUNET_29:4 0.2236
6 TAUGATE_29:A 0.1922
*RES
2 inst_149:ZN TAUNET_29:1 0.2805
3 TAUNET_29:1 TAUNET_29:2 0.1322
4 TAUNET_29:2 TAUNET_29:3 0.1905
5 TAUNET_29:3 TAUNET_29:4 0.4017
6 TAUNET_29:4 TAUGATE_29:A 0.4680
*END

*D_NET net_9 2.3615
*CONN
*I inst_209:QN O
*I inst_42:A2 I
*I inst_198:A I
*CAP
1 inst_209:QN 0.2331
2 net_9:1 0.3943
3 net_9:2 0.2211
4 net_9:3 0.1955
5 inst_198:A 0.1868
6 net_9:4 0.4792
7 net_9:5 0.1808
8 net_9:6 0.0717
9 inst_42:A2 0.3990
*RES
2 inst_209:QN net_9:1 0.4889
3 net_9:1 net_9:2 0.0703
4 net_9:2 net_9:3 0.3298
5 net_9:3 inst_198:A 0.4131
6 net_9:3 net_9:4 0.4035
7 net_9:4 net_9:5 0.0219
8 net_9:5 net_9:6 0.0830
9 net_9:6 inst_42:A2 0.4539
*END

