*SPEF "IEEE 1481-1998"
*DESIGN "changes"
*DATE "Tue Dec 02 20:48:16 2014"
*VENDOR "TAU 2015 Contest"
*PROGRAM "Benchmark Parasitic Generator"
*VERSION "0.0"
*DESIGN_FLOW "NETLIST_TYPE_VERILOG"
*DIVIDER /
*DELIMITER :
*BUS_DELIMITER [ ]
*T_UNIT 1 PS
*C_UNIT 1 FF
*R_UNIT 1 KOHM
*L_UNIT 1 UH

*D_NET TAUNET_9 1.7439
*CONN
*I inst_128:ZN O
*I TAUGATE_9:A I
*CAP
1 inst_128:ZN 0.2611
2 TAUNET_9:1 0.4098
3 TAUNET_9:2 0.5009
4 TAUNET_9:3 0.2843
5 TAUGATE_9:A 0.2878
*RES
2 inst_128:ZN TAUNET_9:1 0.1659
3 TAUNET_9:1 TAUNET_9:2 0.2742
4 TAUNET_9:2 TAUNET_9:3 0.3494
5 TAUNET_9:3 TAUGATE_9:A 0.1485
*END

*D_NET TAUNET_5 1.3760
*CONN
*I inst_127:ZN O
*I TAUGATE_5:A I
*CAP
1 inst_127:ZN 0.2110
2 TAUNET_5:1 0.3070
3 TAUNET_5:2 0.3583
4 TAUNET_5:3 0.1395
5 TAUNET_5:4 0.0646
6 TAUNET_5:5 0.0794
7 TAUGATE_5:A 0.2161
*RES
2 inst_127:ZN TAUNET_5:1 0.1614
3 TAUNET_5:1 TAUNET_5:2 0.3312
4 TAUNET_5:2 TAUNET_5:3 0.3755
5 TAUNET_5:3 TAUNET_5:4 0.4644
6 TAUNET_5:4 TAUNET_5:5 0.4559
7 TAUNET_5:5 TAUGATE_5:A 0.4050
*END

*D_NET TAUNET_8 0.4849
*CONN
*I inst_175:ZN O
*I TAUGATE_8:A I
*CAP
1 inst_175:ZN 0.1670
2 TAUNET_8:1 0.2440
3 TAUNET_8:2 0.0332
4 TAUGATE_8:A 0.0406
*RES
2 inst_175:ZN TAUNET_8:1 0.2732
3 TAUNET_8:1 TAUNET_8:2 0.0073
4 TAUNET_8:2 TAUGATE_8:A 0.1308
*END

*D_NET net_136 3.2076
*CONN
*I TAUGATE_8:Z O
*I inst_88:A1 I
*I inst_192:A I
*CAP
1 TAUGATE_8:Z 0.2909
2 net_136:1 0.0740
3 net_136:2 0.4871
4 net_136:3 0.4951
5 net_136:4 0.4125
6 inst_88:A1 0.0565
7 net_136:5 0.4708
8 net_136:6 0.3056
9 net_136:7 0.3464
10 net_136:8 0.0305
11 inst_192:A 0.2383
*RES
2 TAUGATE_8:Z net_136:1 0.1285
3 net_136:1 net_136:2 0.0292
4 net_136:2 net_136:3 0.2926
5 net_136:3 net_136:4 0.4507
6 net_136:4 inst_88:A1 0.3356
7 net_136:4 net_136:5 0.4020
8 net_136:5 net_136:6 0.2529
9 net_136:6 net_136:7 0.2665
10 net_136:7 net_136:8 0.4354
11 net_136:8 inst_192:A 0.1977
*END

*D_NET net_51 2.4224
*CONN
*I TAUGATE_6:Z O
*I inst_221:A3 I
*I inst_225:A2 I
*CAP
1 TAUGATE_6:Z 0.3276
2 net_51:1 0.3292
3 net_51:2 0.0716
4 net_51:3 0.2236
5 net_51:4 0.1922
6 inst_221:A3 0.2805
7 net_51:5 0.3943
8 net_51:6 0.2211
9 net_51:7 0.1955
10 inst_225:A2 0.1868
*RES
2 TAUGATE_6:Z net_51:1 0.1322
3 net_51:1 net_51:2 0.1905
4 net_51:2 net_51:3 0.4017
5 net_51:3 net_51:4 0.4680
6 net_51:4 inst_221:A3 0.2976
7 net_51:2 net_51:5 0.4889
8 net_51:5 net_51:6 0.0703
9 net_51:6 net_51:7 0.3298
10 net_51:7 inst_225:A2 0.4131
*END

*D_NET TAUNET_6 1.4221
*CONN
*I inst_28:ZN O
*I TAUGATE_6:A I
*CAP
1 inst_28:ZN 0.2621
2 TAUNET_6:1 0.1808
3 TAUNET_6:2 0.0717
4 TAUNET_6:3 0.3990
5 TAUNET_6:4 0.4035
6 TAUNET_6:5 0.0219
7 TAUGATE_6:A 0.0830
*RES
2 inst_28:ZN TAUNET_6:1 0.4539
3 TAUNET_6:1 TAUNET_6:2 0.1250
4 TAUNET_6:2 TAUNET_6:3 0.3196
5 TAUNET_6:3 TAUNET_6:4 0.4976
6 TAUNET_6:4 TAUNET_6:5 0.3591
7 TAUNET_6:5 TAUGATE_6:A 0.2780
*END

*D_NET net_206 2.6031
*CONN
*I TAUGATE_9:Z O
*I inst_67:A1 I
*CAP
1 TAUGATE_9:Z 0.1593
2 net_206:1 0.3498
3 net_206:2 0.4055
4 net_206:3 0.4519
5 net_206:4 0.4658
6 net_206:5 0.3690
7 inst_67:A1 0.4019
*RES
2 TAUGATE_9:Z net_206:1 0.0632
3 net_206:1 net_206:2 0.2503
4 net_206:2 net_206:3 0.4700
5 net_206:3 net_206:4 0.3789
6 net_206:4 net_206:5 0.3545
7 net_206:5 inst_67:A1 0.1033
*END

*D_NET net_195 1.3094
*CONN
*I TAUGATE_5:Z O
*I inst_87:A1 I
*CAP
1 TAUGATE_5:Z 0.1782
2 net_195:1 0.0376
3 net_195:2 0.0972
4 net_195:3 0.3594
5 net_195:4 0.0525
6 net_195:5 0.3248
7 inst_87:A1 0.2597
*RES
2 TAUGATE_5:Z net_195:1 0.1267
3 net_195:1 net_195:2 0.3840
4 net_195:2 net_195:3 0.2434
5 net_195:3 net_195:4 0.3726
6 net_195:4 net_195:5 0.2980
7 net_195:5 inst_87:A1 0.2454
*END

*D_NET TAUNET_7 1.0674
*CONN
*I inst_179:ZN O
*I TAUGATE_7:A I
*CAP
1 inst_179:ZN 0.1921
2 TAUNET_7:1 0.4443
3 TAUNET_7:2 0.1288
4 TAUGATE_7:A 0.3022
*RES
2 inst_179:ZN TAUNET_7:1 0.1405
3 TAUNET_7:1 TAUNET_7:2 0.0668
4 TAUNET_7:2 TAUGATE_7:A 0.3699
*END

*D_NET net_202 1.5989
*CONN
*I TAUGATE_7:Z O
*I inst_65:A2 I
*CAP
1 TAUGATE_7:Z 0.4004
2 net_202:1 0.1341
3 net_202:2 0.3915
4 net_202:3 0.0282
5 net_202:4 0.3089
6 net_202:5 0.0253
7 inst_65:A2 0.3105
*RES
2 TAUGATE_7:Z net_202:1 0.1881
3 net_202:1 net_202:2 0.2034
4 net_202:2 net_202:3 0.1592
5 net_202:3 net_202:4 0.3147
6 net_202:4 net_202:5 0.2761
7 net_202:5 inst_65:A2 0.3643
*END

