*SPEF "IEEE 1481-1998"
*DESIGN "changes"
*DATE "Tue Dec 02 20:48:16 2014"
*VENDOR "TAU 2015 Contest"
*PROGRAM "Benchmark Parasitic Generator"
*VERSION "0.0"
*DESIGN_FLOW "NETLIST_TYPE_VERILOG"
*DIVIDER /
*DELIMITER :
*BUS_DELIMITER [ ]
*T_UNIT 1 PS
*C_UNIT 1 FF
*R_UNIT 1 KOHM
*L_UNIT 1 UH

*D_NET TAUNET_13 1.7439
*CONN
*I inst_160:ZN O
*I TAUGATE_13:A I
*CAP
1 inst_160:ZN 0.2611
2 TAUNET_13:1 0.4098
3 TAUNET_13:2 0.5009
4 TAUNET_13:3 0.2843
5 TAUGATE_13:A 0.2878
*RES
2 inst_160:ZN TAUNET_13:1 0.1659
3 TAUNET_13:1 TAUNET_13:2 0.2742
4 TAUNET_13:2 TAUNET_13:3 0.3494
5 TAUNET_13:3 TAUGATE_13:A 0.1485
*END

*D_NET TAUNET_12 1.3760
*CONN
*I inst_134:ZN O
*I TAUGATE_12:A I
*CAP
1 inst_134:ZN 0.2110
2 TAUNET_12:1 0.3070
3 TAUNET_12:2 0.3583
4 TAUNET_12:3 0.1395
5 TAUNET_12:4 0.0646
6 TAUNET_12:5 0.0794
7 TAUGATE_12:A 0.2161
*RES
2 inst_134:ZN TAUNET_12:1 0.1614
3 TAUNET_12:1 TAUNET_12:2 0.3312
4 TAUNET_12:2 TAUNET_12:3 0.3755
5 TAUNET_12:3 TAUNET_12:4 0.4644
6 TAUNET_12:4 TAUNET_12:5 0.4559
7 TAUNET_12:5 TAUGATE_12:A 0.4050
*END

*D_NET net_223 0.4849
*CONN
*I TAUGATE_26:Z O
*I inst_105:A1 I
*CAP
1 TAUGATE_26:Z 0.1670
2 net_223:1 0.2440
3 net_223:2 0.0332
4 inst_105:A1 0.0406
*RES
2 TAUGATE_26:Z net_223:1 0.2732
3 net_223:1 net_223:2 0.0073
4 net_223:2 inst_105:A1 0.1308
*END

*D_NET net_30 1.8161
*CONN
*I TAUGATE_11:Z O
*I inst_169:A I
*CAP
1 TAUGATE_11:Z 0.2909
2 net_30:1 0.0740
3 net_30:2 0.4871
4 net_30:3 0.4951
5 net_30:4 0.4125
6 inst_169:A 0.0565
*RES
2 TAUGATE_11:Z net_30:1 0.1285
3 net_30:1 net_30:2 0.0292
4 net_30:2 net_30:3 0.2926
5 net_30:3 net_30:4 0.4507
6 net_30:4 inst_169:A 0.3356
*END

*D_NET TAUNET_1 1.9602
*CONN
*I TAUGATE_51:Z O
*I TAUGATE_1:A I
*CAP
1 TAUGATE_51:Z 0.3845
2 TAUNET_1:1 0.3056
3 TAUNET_1:2 0.3464
4 TAUNET_1:3 0.0305
5 TAUNET_1:4 0.2383
6 TAUNET_1:5 0.4020
7 TAUGATE_1:A 0.2529
*RES
2 TAUGATE_51:Z TAUNET_1:1 0.2665
3 TAUNET_1:1 TAUNET_1:2 0.4354
4 TAUNET_1:2 TAUNET_1:3 0.1977
5 TAUNET_1:3 TAUNET_1:4 0.0788
6 TAUNET_1:4 TAUNET_1:5 0.3276
7 TAUNET_1:5 TAUGATE_1:A 0.3833
*END

*D_NET net_132 2.8321
*CONN
*I TAUGATE_25:Z O
*I inst_62:A1 I
*I inst_174:A I
*I inst_71:A2 I
*CAP
1 TAUGATE_25:Z 0.0716
2 net_132:1 0.1922
3 net_132:2 0.2805
4 net_132:3 0.1322
5 inst_174:A 0.1905
6 net_132:4 0.2211
7 net_132:5 0.1955
8 net_132:6 0.1868
9 net_132:7 0.4889
10 inst_62:A1 0.0703
11 net_132:8 0.3990
12 inst_71:A2 0.4035
*RES
2 TAUGATE_25:Z net_132:1 0.4017
3 net_132:1 net_132:2 0.4680
4 net_132:2 net_132:3 0.2976
5 net_132:3 inst_174:A 0.2331
6 net_132:2 net_132:4 0.3298
7 net_132:4 net_132:5 0.4131
8 net_132:5 net_132:6 0.3310
9 net_132:6 net_132:7 0.2621
10 net_132:7 inst_62:A1 0.4792
11 net_132:3 net_132:8 0.0219
12 net_132:8 inst_71:A2 0.0830
*END

*D_NET net_6 5.1375
*CONN
*I TAUGATE_43:Z O
*I inst_83:A2 I
*I inst_90:A2 I
*I inst_5:A1 I
*I inst_157:A I
*CAP
1 TAUGATE_43:Z 0.1250
2 net_6:1 0.4976
3 net_6:2 0.3591
4 net_6:3 0.2780
5 net_6:4 0.2022
6 inst_157:A 0.1593
7 net_6:5 0.0632
8 net_6:6 0.2503
9 net_6:7 0.4700
10 net_6:8 0.3789
11 net_6:9 0.3545
12 inst_90:A2 0.1033
13 net_6:10 0.2597
14 net_6:11 0.1267
15 net_6:12 0.3840
16 net_6:13 0.2434
17 inst_5:A1 0.3726
18 net_6:14 0.3022
19 net_6:15 0.1405
20 inst_83:A2 0.0668
*RES
2 TAUGATE_43:Z net_6:1 0.4382
3 net_6:1 net_6:2 0.3498
4 net_6:2 net_6:3 0.4055
5 net_6:3 net_6:4 0.4519
6 net_6:4 inst_157:A 0.4658
7 net_6:4 net_6:5 0.4316
8 net_6:5 net_6:6 0.1782
9 net_6:6 net_6:7 0.4734
10 net_6:7 net_6:8 0.0376
11 net_6:8 net_6:9 0.0972
12 net_6:9 inst_90:A2 0.3594
13 net_6:1 net_6:10 0.2980
14 net_6:10 net_6:11 0.2454
15 net_6:11 net_6:12 0.4670
16 net_6:12 net_6:13 0.1921
17 net_6:13 inst_5:A1 0.1376
18 net_6:13 net_6:14 0.3699
19 net_6:14 net_6:15 0.4131
20 net_6:15 inst_83:A2 0.4004
*END

*D_NET net_99 2.2087
*CONN
*I TAUGATE_57:Z O
*I inst_100:A2 I
*I inst_51:A1 I
*I inst_97:A1 I
*CAP
1 TAUGATE_57:Z 0.1341
2 net_99:1 0.0282
3 net_99:2 0.3089
4 net_99:3 0.0253
5 net_99:4 0.3105
6 inst_97:A1 0.1881
7 net_99:5 0.3854
8 inst_51:A1 0.3580
9 net_99:6 0.2548
10 inst_100:A2 0.2154
*RES
2 TAUGATE_57:Z net_99:1 0.2034
3 net_99:1 net_99:2 0.1592
4 net_99:2 net_99:3 0.3147
5 net_99:3 net_99:4 0.2761
6 net_99:4 inst_97:A1 0.3643
7 net_99:2 net_99:5 0.3774
8 net_99:5 inst_51:A1 0.2731
9 net_99:2 net_99:6 0.4921
10 net_99:6 inst_100:A2 0.1648
*END

*D_NET TAUNET_35 1.0120
*CONN
*I inst_127:ZN O
*I TAUGATE_35:A I
*CAP
1 inst_127:ZN 0.0112
2 TAUNET_35:1 0.1128
3 TAUNET_35:2 0.2239
4 TAUNET_35:3 0.0917
5 TAUNET_35:4 0.4230
6 TAUGATE_35:A 0.1494
*RES
2 inst_127:ZN TAUNET_35:1 0.3290
3 TAUNET_35:1 TAUNET_35:2 0.1620
4 TAUNET_35:2 TAUNET_35:3 0.0029
5 TAUNET_35:3 TAUNET_35:4 0.2883
6 TAUNET_35:4 TAUGATE_35:A 0.1903
*END

*D_NET net_55 0.6766
*CONN
*I TAUGATE_10:Z O
*I inst_55:A1 I
*CAP
1 TAUGATE_10:Z 0.3484
2 net_55:1 0.1392
3 inst_55:A1 0.1891
*RES
2 TAUGATE_10:Z net_55:1 0.0464
3 net_55:1 inst_55:A1 0.0364
*END

*D_NET net_140 0.6214
*CONN
*I TAUGATE_15:Z O
*I inst_78:A3 I
*CAP
1 TAUGATE_15:Z 0.4104
2 net_140:1 0.0510
3 inst_78:A3 0.1600
*RES
2 TAUGATE_15:Z net_140:1 0.1748
3 net_140:1 inst_78:A3 0.4787
*END

*D_NET net_148 1.6741
*CONN
*I TAUGATE_58:Z O
*I inst_20:A1 I
*CAP
1 TAUGATE_58:Z 0.4606
2 net_148:1 0.4657
3 net_148:2 0.3595
4 net_148:3 0.2471
5 net_148:4 0.0832
6 inst_20:A1 0.0580
*RES
2 TAUGATE_58:Z net_148:1 0.3736
3 net_148:1 net_148:2 0.0395
4 net_148:2 net_148:3 0.3644
5 net_148:3 net_148:4 0.0829
6 net_148:4 inst_20:A1 0.1977
*END

*D_NET net_146 2.1119
*CONN
*I TAUGATE_32:Z O
*I inst_209:D I
*CAP
1 TAUGATE_32:Z 0.3877
2 net_146:1 0.4950
3 net_146:2 0.0413
4 net_146:3 0.4651
5 net_146:4 0.4065
6 inst_209:D 0.3164
*RES
2 TAUGATE_32:Z net_146:1 0.3513
3 net_146:1 net_146:2 0.1165
4 net_146:2 net_146:3 0.0986
5 net_146:3 net_146:4 0.2243
6 net_146:4 inst_209:D 0.1286
*END

*D_NET TAUNET_46 1.4306
*CONN
*I inst_178:ZN O
*I TAUGATE_46:A I
*CAP
1 inst_178:ZN 0.2482
2 TAUNET_46:1 0.1533
3 TAUNET_46:2 0.4091
4 TAUNET_46:3 0.2613
5 TAUGATE_46:A 0.3587
*RES
2 inst_178:ZN TAUNET_46:1 0.1869
3 TAUNET_46:1 TAUNET_46:2 0.4974
4 TAUNET_46:2 TAUNET_46:3 0.3047
5 TAUNET_46:3 TAUGATE_46:A 0.1200
*END

*D_NET net_210 0.5270
*CONN
*I TAUGATE_55:Z O
*I inst_73:A3 I
*CAP
1 TAUGATE_55:Z 0.1210
2 net_210:1 0.1014
3 net_210:2 0.0283
4 inst_73:A3 0.2763
*RES
2 TAUGATE_55:Z net_210:1 0.2945
3 net_210:1 net_210:2 0.3177
4 net_210:2 inst_73:A3 0.2101
*END

*D_NET net_72 1.4286
*CONN
*I TAUGATE_30:Z O
*I inst_51:A2 I
*CAP
1 TAUGATE_30:Z 0.2046
2 net_72:1 0.1317
3 net_72:2 0.3617
4 net_72:3 0.0856
5 net_72:4 0.3629
6 inst_51:A2 0.2821
*RES
2 TAUGATE_30:Z net_72:1 0.3900
3 net_72:1 net_72:2 0.0557
4 net_72:2 net_72:3 0.1253
5 net_72:3 net_72:4 0.2716
6 net_72:4 inst_51:A2 0.3735
*END

*D_NET TAUNET_24 1.5454
*CONN
*I TAUGATE_8:Z O
*I TAUGATE_24:A I
*CAP
1 TAUGATE_8:Z 0.3323
2 TAUNET_24:1 0.0362
3 TAUNET_24:2 0.4966
4 TAUNET_24:3 0.4101
5 TAUGATE_24:A 0.2702
*RES
2 TAUGATE_8:Z TAUNET_24:1 0.2135
3 TAUNET_24:1 TAUNET_24:2 0.0419
4 TAUNET_24:2 TAUNET_24:3 0.2773
5 TAUNET_24:3 TAUGATE_24:A 0.0903
*END

*D_NET TAUNET_16 2.3457
*CONN
*I inst_62:ZN O
*I TAUGATE_16:A I
*CAP
1 inst_62:ZN 0.4602
2 TAUNET_16:1 0.2009
3 TAUNET_16:2 0.3114
4 TAUNET_16:3 0.3090
5 TAUNET_16:4 0.3972
6 TAUNET_16:5 0.4228
7 TAUGATE_16:A 0.2443
*RES
2 inst_62:ZN TAUNET_16:1 0.2458
3 TAUNET_16:1 TAUNET_16:2 0.3734
4 TAUNET_16:2 TAUNET_16:3 0.1567
5 TAUNET_16:3 TAUNET_16:4 0.1247
6 TAUNET_16:4 TAUNET_16:5 0.2439
7 TAUNET_16:5 TAUGATE_16:A 0.2588
*END

*D_NET TAUNET_31 0.9945
*CONN
*I inst_79:ZN O
*I TAUGATE_31:A I
*CAP
1 inst_79:ZN 0.3528
2 TAUNET_31:1 0.4436
3 TAUGATE_31:A 0.1981
*RES
2 inst_79:ZN TAUNET_31:1 0.3275
3 TAUNET_31:1 TAUGATE_31:A 0.0169
*END

*D_NET TAUNET_25 1.2825
*CONN
*I inst_33:ZN O
*I TAUGATE_25:A I
*CAP
1 inst_33:ZN 0.4684
2 TAUNET_25:1 0.0579
3 TAUNET_25:2 0.0423
4 TAUNET_25:3 0.2861
5 TAUGATE_25:A 0.4278
*RES
2 inst_33:ZN TAUNET_25:1 0.3875
3 TAUNET_25:1 TAUNET_25:2 0.4796
4 TAUNET_25:2 TAUNET_25:3 0.3740
5 TAUNET_25:3 TAUGATE_25:A 0.1554
*END

*D_NET TAUNET_27 2.4087
*CONN
*P G1 I
*I TAUGATE_27:A I
*CAP
1 G1 0.4380
2 TAUNET_27:1 0.4990
3 TAUNET_27:2 0.2134
4 TAUNET_27:3 0.1115
5 TAUNET_27:4 0.4947
6 TAUNET_27:5 0.3666
7 TAUGATE_27:A 0.2854
*RES
2 G1 TAUNET_27:1 0.4464
3 TAUNET_27:1 TAUNET_27:2 0.2438
4 TAUNET_27:2 TAUNET_27:3 0.2969
5 TAUNET_27:3 TAUNET_27:4 0.3091
6 TAUNET_27:4 TAUNET_27:5 0.5006
7 TAUNET_27:5 TAUGATE_27:A 0.2264
*END

*D_NET TAUNET_28 1.1017
*CONN
*P blif_reset_net I
*I TAUGATE_28:A I
*CAP
1 blif_reset_net 0.2044
2 TAUNET_28:1 0.3886
3 TAUNET_28:2 0.2618
4 TAUGATE_28:A 0.2468
*RES
2 blif_reset_net TAUNET_28:1 0.4002
3 TAUNET_28:1 TAUNET_28:2 0.3652
4 TAUNET_28:2 TAUGATE_28:A 0.1857
*END

*D_NET TAUNET_57 1.1556
*CONN
*I inst_162:ZN O
*I TAUGATE_57:A I
*CAP
1 inst_162:ZN 0.0882
2 TAUNET_57:1 0.2715
3 TAUNET_57:2 0.0199
4 TAUNET_57:3 0.4145
5 TAUNET_57:4 0.1459
6 TAUNET_57:5 0.1130
7 TAUGATE_57:A 0.1026
*RES
2 inst_162:ZN TAUNET_57:1 0.1939
3 TAUNET_57:1 TAUNET_57:2 0.1095
4 TAUNET_57:2 TAUNET_57:3 0.0212
5 TAUNET_57:3 TAUNET_57:4 0.1417
6 TAUNET_57:4 TAUNET_57:5 0.2190
7 TAUNET_57:5 TAUGATE_57:A 0.4826
*END

*D_NET net_5 1.4876
*CONN
*I TAUGATE_41:Z O
*I inst_123:A I
*CAP
1 TAUGATE_41:Z 0.4033
2 net_5:1 0.2540
3 net_5:2 0.0526
4 net_5:3 0.2388
5 net_5:4 0.1787
6 inst_123:A 0.3603
*RES
2 TAUGATE_41:Z net_5:1 0.0603
3 net_5:1 net_5:2 0.0863
4 net_5:2 net_5:3 0.3102
5 net_5:3 net_5:4 0.1239
6 net_5:4 inst_123:A 0.2473
*END

*D_NET net_172 1.8437
*CONN
*I TAUGATE_31:Z O
*I inst_24:A2 I
*CAP
1 TAUGATE_31:Z 0.4935
2 net_172:1 0.3995
3 net_172:2 0.4441
4 net_172:3 0.4218
5 inst_24:A2 0.0848
*RES
2 TAUGATE_31:Z net_172:1 0.0266
3 net_172:1 net_172:2 0.0274
4 net_172:2 net_172:3 0.4218
5 net_172:3 inst_24:A2 0.2061
*END

*D_NET net_127 1.6754
*CONN
*I TAUGATE_22:Z O
*I inst_206:D I
*CAP
1 TAUGATE_22:Z 0.4583
2 net_127:1 0.0145
3 net_127:2 0.0725
4 net_127:3 0.4492
5 net_127:4 0.3124
6 inst_206:D 0.3685
*RES
2 TAUGATE_22:Z net_127:1 0.4317
3 net_127:1 net_127:2 0.1801
4 net_127:2 net_127:3 0.2826
5 net_127:3 net_127:4 0.3420
6 net_127:4 inst_206:D 0.0965
*END

*D_NET TAUNET_37 1.1961
*CONN
*I inst_188:ZN O
*I TAUGATE_37:A I
*CAP
1 inst_188:ZN 0.1304
2 TAUNET_37:1 0.4634
3 TAUNET_37:2 0.2869
4 TAUNET_37:3 0.1646
5 TAUNET_37:4 0.1182
6 TAUGATE_37:A 0.0327
*RES
2 inst_188:ZN TAUNET_37:1 0.0608
3 TAUNET_37:1 TAUNET_37:2 0.3721
4 TAUNET_37:2 TAUNET_37:3 0.4648
5 TAUNET_37:3 TAUNET_37:4 0.2376
6 TAUNET_37:4 TAUGATE_37:A 0.1146
*END

*D_NET TAUNET_32 0.6447
*CONN
*I inst_17:ZN O
*I TAUGATE_32:A I
*CAP
1 inst_17:ZN 0.1439
2 TAUNET_32:1 0.2502
3 TAUGATE_32:A 0.2506
*RES
2 inst_17:ZN TAUNET_32:1 0.4486
3 TAUNET_32:1 TAUGATE_32:A 0.0641
*END

*D_NET TAUNET_38 0.3299
*CONN
*I inst_167:ZN O
*I TAUGATE_38:A I
*CAP
1 inst_167:ZN 0.0079
2 TAUNET_38:1 0.2219
3 TAUGATE_38:A 0.1001
*RES
2 inst_167:ZN TAUNET_38:1 0.2747
3 TAUNET_38:1 TAUGATE_38:A 0.1704
*END

*D_NET net_184 1.6596
*CONN
*I TAUGATE_18:Z O
*I inst_37:A1 I
*I inst_94:A1 I
*CAP
1 TAUGATE_18:Z 0.0121
2 net_184:1 0.0267
3 inst_37:A1 0.1278
4 net_184:2 0.2505
5 net_184:3 0.2036
6 net_184:4 0.3990
7 net_184:5 0.0185
8 net_184:6 0.3777
9 inst_94:A1 0.2437
*RES
2 TAUGATE_18:Z net_184:1 0.1079
3 net_184:1 inst_37:A1 0.3621
4 net_184:1 net_184:2 0.3641
5 net_184:2 net_184:3 0.1411
6 net_184:3 net_184:4 0.2452
7 net_184:4 net_184:5 0.2723
8 net_184:5 net_184:6 0.2079
9 net_184:6 inst_94:A1 0.2449
*END

*D_NET TAUNET_40 0.1408
*CONN
*I inst_148:ZN O
*I TAUGATE_40:A I
*CAP
1 inst_148:ZN 0.0917
2 TAUNET_40:1 0.0227
3 TAUGATE_40:A 0.0264
*RES
2 inst_148:ZN TAUNET_40:1 0.0174
3 TAUNET_40:1 TAUGATE_40:A 0.1906
*END

*D_NET net_187 0.7381
*CONN
*I TAUGATE_12:Z O
*I inst_42:A1 I
*CAP
1 TAUGATE_12:Z 0.0937
2 net_187:1 0.3987
3 net_187:2 0.0209
4 net_187:3 0.1182
5 inst_42:A1 0.1067
*RES
2 TAUGATE_12:Z net_187:1 0.4881
3 net_187:1 net_187:2 0.3672
4 net_187:2 net_187:3 0.4629
5 net_187:3 inst_42:A1 0.1157
*END

*D_NET TAUNET_20 1.8683
*CONN
*I inst_202:QN O
*I TAUGATE_20:A I
*CAP
1 inst_202:QN 0.2138
2 TAUNET_20:1 0.2979
3 TAUNET_20:2 0.3428
4 TAUNET_20:3 0.2325
5 TAUNET_20:4 0.2733
6 TAUNET_20:5 0.1266
7 TAUGATE_20:A 0.3814
*RES
2 inst_202:QN TAUNET_20:1 0.1363
3 TAUNET_20:1 TAUNET_20:2 0.3277
4 TAUNET_20:2 TAUNET_20:3 0.3144
5 TAUNET_20:3 TAUNET_20:4 0.4503
6 TAUNET_20:4 TAUNET_20:5 0.3676
7 TAUNET_20:5 TAUGATE_20:A 0.1603
*END

*D_NET TAUNET_14 1.5235
*CONN
*I inst_204:QN O
*I TAUGATE_14:A I
*CAP
1 inst_204:QN 0.1159
2 TAUNET_14:1 0.1465
3 TAUNET_14:2 0.1463
4 TAUNET_14:3 0.4621
5 TAUNET_14:4 0.4065
6 TAUNET_14:5 0.0227
7 TAUGATE_14:A 0.2236
*RES
2 inst_204:QN TAUNET_14:1 0.4114
3 TAUNET_14:1 TAUNET_14:2 0.0715
4 TAUNET_14:2 TAUNET_14:3 0.1546
5 TAUNET_14:3 TAUNET_14:4 0.1861
6 TAUNET_14:4 TAUNET_14:5 0.4367
7 TAUNET_14:5 TAUGATE_14:A 0.3452
*END

*D_NET TAUNET_49 0.3052
*CONN
*I inst_214:QN O
*I TAUGATE_49:A I
*CAP
1 inst_214:QN 0.1217
2 TAUNET_49:1 0.1222
3 TAUGATE_49:A 0.0613
*RES
2 inst_214:QN TAUNET_49:1 0.1692
3 TAUNET_49:1 TAUGATE_49:A 0.4407
*END

*D_NET net_221 1.3881
*CONN
*I TAUGATE_19:Z O
*I inst_4:A2 I
*CAP
1 TAUGATE_19:Z 0.2563
2 net_221:1 0.2603
3 net_221:2 0.2874
4 net_221:3 0.3072
5 inst_4:A2 0.2768
*RES
2 TAUGATE_19:Z net_221:1 0.1679
3 net_221:1 net_221:2 0.2053
4 net_221:2 net_221:3 0.2140
5 net_221:3 inst_4:A2 0.3306
*END

*D_NET net_115 2.0736
*CONN
*I TAUGATE_56:Z O
*I inst_202:D I
*CAP
1 TAUGATE_56:Z 0.2580
2 net_115:1 0.4796
3 net_115:2 0.3806
4 net_115:3 0.4946
5 inst_202:D 0.4608
*RES
2 TAUGATE_56:Z net_115:1 0.4692
3 net_115:1 net_115:2 0.4766
4 net_115:2 net_115:3 0.0589
5 net_115:3 inst_202:D 0.0962
*END

*D_NET net_214 1.3235
*CONN
*I TAUGATE_45:Z O
*I inst_85:A2 I
*CAP
1 TAUGATE_45:Z 0.1750
2 net_214:1 0.0845
3 net_214:2 0.1888
4 net_214:3 0.1436
5 net_214:4 0.1762
6 net_214:5 0.4748
7 inst_85:A2 0.0806
*RES
2 TAUGATE_45:Z net_214:1 0.0407
3 net_214:1 net_214:2 0.2069
4 net_214:2 net_214:3 0.0491
5 net_214:3 net_214:4 0.4137
6 net_214:4 net_214:5 0.3046
7 net_214:5 inst_85:A2 0.2987
*END

*D_NET TAUNET_50 1.6284
*CONN
*I inst_224:ZN O
*I TAUGATE_50:A I
*CAP
1 inst_224:ZN 0.1831
2 TAUNET_50:1 0.0191
3 TAUNET_50:2 0.3538
4 TAUNET_50:3 0.4300
5 TAUNET_50:4 0.3629
6 TAUNET_50:5 0.0787
7 TAUGATE_50:A 0.2007
*RES
2 inst_224:ZN TAUNET_50:1 0.2971
3 TAUNET_50:1 TAUNET_50:2 0.4025
4 TAUNET_50:2 TAUNET_50:3 0.5010
5 TAUNET_50:3 TAUNET_50:4 0.3538
6 TAUNET_50:4 TAUNET_50:5 0.4649
7 TAUNET_50:5 TAUGATE_50:A 0.0482
*END

*D_NET TAUNET_23 1.9070
*CONN
*I inst_89:ZN O
*I TAUGATE_23:A I
*CAP
1 inst_89:ZN 0.2963
2 TAUNET_23:1 0.2002
3 TAUNET_23:2 0.2573
4 TAUNET_23:3 0.3761
5 TAUNET_23:4 0.0616
6 TAUNET_23:5 0.4298
7 TAUGATE_23:A 0.2857
*RES
2 inst_89:ZN TAUNET_23:1 0.2634
3 TAUNET_23:1 TAUNET_23:2 0.0470
4 TAUNET_23:2 TAUNET_23:3 0.0745
5 TAUNET_23:3 TAUNET_23:4 0.1738
6 TAUNET_23:4 TAUNET_23:5 0.4336
7 TAUNET_23:5 TAUGATE_23:A 0.4556
*END

*D_NET TAUNET_39 1.0764
*CONN
*I inst_85:ZN O
*I TAUGATE_39:A I
*CAP
1 inst_85:ZN 0.0036
2 TAUNET_39:1 0.2737
3 TAUNET_39:2 0.3095
4 TAUGATE_39:A 0.4895
*RES
2 inst_85:ZN TAUNET_39:1 0.4033
3 TAUNET_39:1 TAUNET_39:2 0.2734
4 TAUNET_39:2 TAUGATE_39:A 0.3461
*END

*D_NET net_4 1.3424
*CONN
*I TAUGATE_14:Z O
*I inst_144:A I
*CAP
1 TAUGATE_14:Z 0.0418
2 net_4:1 0.3815
3 net_4:2 0.1458
4 net_4:3 0.4915
5 net_4:4 0.0683
6 inst_144:A 0.2135
*RES
2 TAUGATE_14:Z net_4:1 0.4484
3 net_4:1 net_4:2 0.1379
4 net_4:2 net_4:3 0.1139
5 net_4:3 net_4:4 0.0489
6 net_4:4 inst_144:A 0.0861
*END

*D_NET net_17 1.9837
*CONN
*I TAUGATE_37:Z O
*I inst_145:A I
*I inst_225:A1 I
*CAP
1 TAUGATE_37:Z 0.4806
2 net_17:1 0.1114
3 net_17:2 0.0198
4 net_17:3 0.2366
5 net_17:4 0.1100
6 inst_145:A 0.2818
7 net_17:5 0.0096
8 net_17:6 0.4963
9 inst_225:A1 0.2377
*RES
2 TAUGATE_37:Z net_17:1 0.3290
3 net_17:1 net_17:2 0.1592
4 net_17:2 net_17:3 0.4236
5 net_17:3 net_17:4 0.3328
6 net_17:4 inst_145:A 0.1906
7 net_17:3 net_17:5 0.2571
8 net_17:5 net_17:6 0.3610
9 net_17:6 inst_225:A1 0.0042
*END

*D_NET G1 1.5525
*CONN
*I TAUGATE_27:Z O
*I inst_1:A I
*CAP
1 TAUGATE_27:Z 0.3841
2 G1:1 0.2352
3 G1:2 0.3112
4 G1:3 0.1345
5 G1:4 0.4134
6 inst_1:A 0.0741
*RES
2 TAUGATE_27:Z G1:1 0.4290
3 G1:1 G1:2 0.4891
4 G1:2 G1:3 0.0621
5 G1:3 G1:4 0.2122
6 G1:4 inst_1:A 0.2034
*END

*D_NET net_173 0.9541
*CONN
*I TAUGATE_39:Z O
*I inst_86:A1 I
*CAP
1 TAUGATE_39:Z 0.2112
2 net_173:1 0.1106
3 net_173:2 0.0283
4 net_173:3 0.2644
5 inst_86:A1 0.3395
*RES
2 TAUGATE_39:Z net_173:1 0.4160
3 net_173:1 net_173:2 0.1311
4 net_173:2 net_173:3 0.1702
5 net_173:3 inst_86:A1 0.0535
*END

*D_NET TAUNET_51 1.0831
*CONN
*I inst_60:ZN O
*I TAUGATE_51:A I
*CAP
1 inst_60:ZN 0.2939
2 TAUNET_51:1 0.0520
3 TAUNET_51:2 0.1787
4 TAUNET_51:3 0.3277
5 TAUGATE_51:A 0.2308
*RES
2 inst_60:ZN TAUNET_51:1 0.1825
3 TAUNET_51:1 TAUNET_51:2 0.4154
4 TAUNET_51:2 TAUNET_51:3 0.4205
5 TAUNET_51:3 TAUGATE_51:A 0.1921
*END

*D_NET net_41 2.5377
*CONN
*I TAUGATE_40:Z O
*I inst_0:B I
*I inst_66:A2 I
*CAP
1 TAUGATE_40:Z 0.0500
2 net_41:1 0.2552
3 net_41:2 0.2397
4 net_41:3 0.3943
5 net_41:4 0.0450
6 inst_66:A2 0.3586
7 net_41:5 0.0277
8 net_41:6 0.2232
9 net_41:7 0.0700
10 net_41:8 0.3825
11 inst_0:B 0.4916
*RES
2 TAUGATE_40:Z net_41:1 0.1804
3 net_41:1 net_41:2 0.2132
4 net_41:2 net_41:3 0.3448
5 net_41:3 net_41:4 0.2539
6 net_41:4 inst_66:A2 0.0169
7 net_41:3 net_41:5 0.0258
8 net_41:5 net_41:6 0.0722
9 net_41:6 net_41:7 0.0268
10 net_41:7 net_41:8 0.0274
11 net_41:8 inst_0:B 0.0955
*END

*D_NET net_198 0.7110
*CONN
*I TAUGATE_54:Z O
*I inst_97:A2 I
*CAP
1 TAUGATE_54:Z 0.0730
2 net_198:1 0.1500
3 net_198:2 0.2720
4 net_198:3 0.0605
5 inst_97:A2 0.1555
*RES
2 TAUGATE_54:Z net_198:1 0.4347
3 net_198:1 net_198:2 0.2976
4 net_198:2 net_198:3 0.3531
5 net_198:3 inst_97:A2 0.0316
*END

*D_NET TAUNET_19 1.2356
*CONN
*I inst_194:ZN O
*I TAUGATE_19:A I
*CAP
1 inst_194:ZN 0.0755
2 TAUNET_19:1 0.3515
3 TAUNET_19:2 0.2983
4 TAUNET_19:3 0.4269
5 TAUNET_19:4 0.0493
6 TAUGATE_19:A 0.0341
*RES
2 inst_194:ZN TAUNET_19:1 0.3020
3 TAUNET_19:1 TAUNET_19:2 0.3389
4 TAUNET_19:2 TAUNET_19:3 0.4000
5 TAUNET_19:3 TAUNET_19:4 0.0188
6 TAUNET_19:4 TAUGATE_19:A 0.4709
*END

*D_NET TAUNET_34 0.8262
*CONN
*I TAUGATE_7:Z O
*I TAUGATE_34:A I
*CAP
1 TAUGATE_7:Z 0.0122
2 TAUNET_34:1 0.0936
3 TAUNET_34:2 0.3051
4 TAUNET_34:3 0.1197
5 TAUGATE_34:A 0.2956
*RES
2 TAUGATE_7:Z TAUNET_34:1 0.2210
3 TAUNET_34:1 TAUNET_34:2 0.0970
4 TAUNET_34:2 TAUNET_34:3 0.2798
5 TAUNET_34:3 TAUGATE_34:A 0.3150
*END

*D_NET TAUNET_54 1.2664
*CONN
*I inst_125:ZN O
*I TAUGATE_54:A I
*CAP
1 inst_125:ZN 0.2108
2 TAUNET_54:1 0.0161
3 TAUNET_54:2 0.2047
4 TAUNET_54:3 0.3729
5 TAUNET_54:4 0.0610
6 TAUGATE_54:A 0.4010
*RES
2 inst_125:ZN TAUNET_54:1 0.2910
3 TAUNET_54:1 TAUNET_54:2 0.3768
4 TAUNET_54:2 TAUNET_54:3 0.3083
5 TAUNET_54:3 TAUNET_54:4 0.1250
6 TAUNET_54:4 TAUGATE_54:A 0.3526
*END

*D_NET TAUNET_44 1.6292
*CONN
*I TAUGATE_6:Z O
*I TAUGATE_44:A I
*CAP
1 TAUGATE_6:Z 0.3144
2 TAUNET_44:1 0.0820
3 TAUNET_44:2 0.2174
4 TAUNET_44:3 0.3638
5 TAUNET_44:4 0.4097
6 TAUGATE_44:A 0.2418
*RES
2 TAUGATE_6:Z TAUNET_44:1 0.4080
3 TAUNET_44:1 TAUNET_44:2 0.3118
4 TAUNET_44:2 TAUNET_44:3 0.4981
5 TAUNET_44:3 TAUNET_44:4 0.3134
6 TAUNET_44:4 TAUGATE_44:A 0.4059
*END

*D_NET net_0 0.9494
*CONN
*I TAUGATE_36:Z O
*I inst_140:A I
*CAP
1 TAUGATE_36:Z 0.0910
2 net_0:1 0.3093
3 net_0:2 0.3342
4 inst_140:A 0.2150
*RES
2 TAUGATE_36:Z net_0:1 0.0109
3 net_0:1 net_0:2 0.1830
4 net_0:2 inst_140:A 0.2298
*END

*D_NET net_156 3.6647
*CONN
*I TAUGATE_13:Z O
*I inst_62:A3 I
*I inst_166:A I
*I inst_76:A3 I
*I inst_77:A3 I
*CAP
1 TAUGATE_13:Z 0.0044
2 net_156:1 0.0476
3 net_156:2 0.0521
4 inst_62:A3 0.0546
5 net_156:3 0.1466
6 net_156:4 0.2784
7 net_156:5 0.2008
8 inst_166:A 0.3776
9 net_156:6 0.3567
10 net_156:7 0.3242
11 net_156:8 0.2336
12 net_156:9 0.3863
13 inst_76:A3 0.2365
14 net_156:10 0.4791
15 net_156:11 0.2417
16 inst_77:A3 0.2444
*RES
2 TAUGATE_13:Z net_156:1 0.0043
3 net_156:1 net_156:2 0.2737
4 net_156:2 inst_62:A3 0.4724
5 net_156:2 net_156:3 0.2937
6 net_156:3 net_156:4 0.0093
7 net_156:4 net_156:5 0.2822
8 net_156:5 inst_166:A 0.4311
9 net_156:1 net_156:6 0.1037
10 net_156:6 net_156:7 0.3572
11 net_156:7 net_156:8 0.2211
12 net_156:8 net_156:9 0.2185
13 net_156:9 inst_76:A3 0.2266
14 net_156:5 net_156:10 0.4262
15 net_156:10 net_156:11 0.3737
16 net_156:11 inst_77:A3 0.3015
*END

*D_NET TAUNET_43 1.5079
*CONN
*I inst_208:QN O
*I TAUGATE_43:A I
*CAP
1 inst_208:QN 0.3035
2 TAUNET_43:1 0.0863
3 TAUNET_43:2 0.2362
4 TAUNET_43:3 0.1365
5 TAUNET_43:4 0.0277
6 TAUNET_43:5 0.4263
7 TAUGATE_43:A 0.2912
*RES
2 inst_208:QN TAUNET_43:1 0.1111
3 TAUNET_43:1 TAUNET_43:2 0.3711
4 TAUNET_43:2 TAUNET_43:3 0.0512
5 TAUNET_43:3 TAUNET_43:4 0.1351
6 TAUNET_43:4 TAUNET_43:5 0.0984
7 TAUNET_43:5 TAUGATE_43:A 0.0368
*END

*D_NET TAUNET_56 1.0413
*CONN
*I inst_220:ZN O
*I TAUGATE_56:A I
*CAP
1 inst_220:ZN 0.1423
2 TAUNET_56:1 0.1146
3 TAUNET_56:2 0.3234
4 TAUGATE_56:A 0.4610
*RES
2 inst_220:ZN TAUNET_56:1 0.4832
3 TAUNET_56:1 TAUNET_56:2 0.2776
4 TAUNET_56:2 TAUGATE_56:A 0.3781
*END

*D_NET TAUNET_55 1.1921
*CONN
*I inst_54:ZN O
*I TAUGATE_55:A I
*CAP
1 inst_54:ZN 0.0185
2 TAUNET_55:1 0.1588
3 TAUNET_55:2 0.3738
4 TAUNET_55:3 0.4556
5 TAUNET_55:4 0.1835
6 TAUGATE_55:A 0.0020
*RES
2 inst_54:ZN TAUNET_55:1 0.2614
3 TAUNET_55:1 TAUNET_55:2 0.3010
4 TAUNET_55:2 TAUNET_55:3 0.2164
5 TAUNET_55:3 TAUNET_55:4 0.4372
6 TAUNET_55:4 TAUGATE_55:A 0.1158
*END

*D_NET TAUNET_11 1.1191
*CONN
*I inst_90:ZN O
*I TAUGATE_11:A I
*CAP
1 inst_90:ZN 0.3810
2 TAUNET_11:1 0.1662
3 TAUNET_11:2 0.3178
4 TAUGATE_11:A 0.2541
*RES
2 inst_90:ZN TAUNET_11:1 0.2497
3 TAUNET_11:1 TAUNET_11:2 0.4625
4 TAUNET_11:2 TAUGATE_11:A 0.2343
*END

*D_NET net_1 3.3987
*CONN
*I TAUGATE_20:Z O
*I inst_79:A1 I
*I inst_143:A I
*I inst_222:A2 I
*CAP
1 TAUGATE_20:Z 0.3461
2 net_1:1 0.4109
3 net_1:2 0.0945
4 net_1:3 0.2326
5 inst_79:A1 0.0121
6 net_1:4 0.4527
7 inst_143:A 0.3131
8 net_1:5 0.3736
9 net_1:6 0.3306
10 net_1:7 0.3042
11 net_1:8 0.1317
12 net_1:9 0.1481
13 inst_222:A2 0.2485
*RES
2 TAUGATE_20:Z net_1:1 0.2674
3 net_1:1 net_1:2 0.2072
4 net_1:2 net_1:3 0.0414
5 net_1:3 inst_79:A1 0.2455
6 net_1:1 net_1:4 0.4392
7 net_1:4 inst_143:A 0.4048
8 net_1:3 net_1:5 0.2201
9 net_1:5 net_1:6 0.2966
10 net_1:6 net_1:7 0.3013
11 net_1:7 net_1:8 0.0758
12 net_1:8 net_1:9 0.0262
13 net_1:9 inst_222:A2 0.3812
*END

*D_NET TAUNET_33 0.5106
*CONN
*I inst_172:ZN O
*I TAUGATE_33:A I
*CAP
1 inst_172:ZN 0.1550
2 TAUNET_33:1 0.1418
3 TAUGATE_33:A 0.2138
*RES
2 inst_172:ZN TAUNET_33:1 0.3805
3 TAUNET_33:1 TAUGATE_33:A 0.2523
*END

*D_NET TAUNET_22 1.6754
*CONN
*I inst_14:ZN O
*I TAUGATE_22:A I
*CAP
1 inst_14:ZN 0.4938
2 TAUNET_22:1 0.2131
3 TAUNET_22:2 0.3201
4 TAUNET_22:3 0.0320
5 TAUNET_22:4 0.2786
6 TAUGATE_22:A 0.3378
*RES
2 inst_14:ZN TAUNET_22:1 0.4364
3 TAUNET_22:1 TAUNET_22:2 0.2454
4 TAUNET_22:2 TAUNET_22:3 0.4527
5 TAUNET_22:3 TAUNET_22:4 0.2663
6 TAUNET_22:4 TAUGATE_22:A 0.3641
*END

*D_NET TAUNET_41 1.5675
*CONN
*I inst_203:QN O
*I TAUGATE_41:A I
*CAP
1 inst_203:QN 0.2701
2 TAUNET_41:1 0.4105
3 TAUNET_41:2 0.3004
4 TAUNET_41:3 0.3665
5 TAUNET_41:4 0.1341
6 TAUGATE_41:A 0.0859
*RES
2 inst_203:QN TAUNET_41:1 0.1706
3 TAUNET_41:1 TAUNET_41:2 0.3812
4 TAUNET_41:2 TAUNET_41:3 0.0751
5 TAUNET_41:3 TAUNET_41:4 0.1227
6 TAUNET_41:4 TAUGATE_41:A 0.0294
*END

*D_NET TAUNET_30 2.1109
*CONN
*I inst_38:ZN O
*I TAUGATE_30:A I
*CAP
1 inst_38:ZN 0.3552
2 TAUNET_30:1 0.1840
3 TAUNET_30:2 0.4010
4 TAUNET_30:3 0.3573
5 TAUNET_30:4 0.4559
6 TAUGATE_30:A 0.3575
*RES
2 inst_38:ZN TAUNET_30:1 0.1715
3 TAUNET_30:1 TAUNET_30:2 0.3050
4 TAUNET_30:2 TAUNET_30:3 0.3594
5 TAUNET_30:3 TAUNET_30:4 0.4902
6 TAUNET_30:4 TAUGATE_30:A 0.4716
*END

*D_NET TAUNET_58 0.8507
*CONN
*I inst_107:ZN O
*I TAUGATE_58:A I
*CAP
1 inst_107:ZN 0.1762
2 TAUNET_58:1 0.1660
3 TAUNET_58:2 0.2177
4 TAUGATE_58:A 0.2908
*RES
2 inst_107:ZN TAUNET_58:1 0.3318
3 TAUNET_58:1 TAUNET_58:2 0.3308
4 TAUNET_58:2 TAUGATE_58:A 0.4080
*END

*D_NET TAUNET_5 0.3444
*CONN
*I TAUGATE_35:Z O
*I TAUGATE_5:A I
*CAP
1 TAUGATE_35:Z 0.1932
2 TAUNET_5:1 0.0053
3 TAUGATE_5:A 0.1459
*RES
2 TAUGATE_35:Z TAUNET_5:1 0.0437
3 TAUNET_5:1 TAUGATE_5:A 0.4598
*END

*D_NET net_2 1.9374
*CONN
*I TAUGATE_49:Z O
*I inst_129:A I
*CAP
1 TAUGATE_49:Z 0.2033
2 net_2:1 0.4574
3 net_2:2 0.4683
4 net_2:3 0.1543
5 net_2:4 0.4873
6 inst_129:A 0.1669
*RES
2 TAUGATE_49:Z net_2:1 0.4800
3 net_2:1 net_2:2 0.4518
4 net_2:2 net_2:3 0.0570
5 net_2:3 net_2:4 0.4909
6 net_2:4 inst_129:A 0.0572
*END

*D_NET net_21 1.5455
*CONN
*I TAUGATE_29:Z O
*I inst_5:A2 I
*CAP
1 TAUGATE_29:Z 0.1013
2 net_21:1 0.4210
3 net_21:2 0.2594
4 net_21:3 0.3565
5 inst_5:A2 0.4074
*RES
2 TAUGATE_29:Z net_21:1 0.4309
3 net_21:1 net_21:2 0.4474
4 net_21:2 net_21:3 0.2931
5 net_21:3 inst_5:A2 0.2848
*END

*D_NET TAUNET_52 1.9018
*CONN
*P G0 I
*I TAUGATE_52:A I
*CAP
1 G0 0.3320
2 TAUNET_52:1 0.3663
3 TAUNET_52:2 0.1512
4 TAUNET_52:3 0.1368
5 TAUNET_52:4 0.4493
6 TAUGATE_52:A 0.4663
*RES
2 G0 TAUNET_52:1 0.2866
3 TAUNET_52:1 TAUNET_52:2 0.1873
4 TAUNET_52:2 TAUNET_52:3 0.1599
5 TAUNET_52:3 TAUNET_52:4 0.3589
6 TAUNET_52:4 TAUGATE_52:A 0.4697
*END

*D_NET net_51 1.7596
*CONN
*I TAUGATE_44:Z O
*I inst_221:A3 I
*I inst_225:A2 I
*CAP
1 TAUGATE_44:Z 0.0401
2 net_51:1 0.1883
3 net_51:2 0.3075
4 net_51:3 0.0604
5 inst_225:A2 0.3908
6 net_51:4 0.3010
7 net_51:5 0.1515
8 net_51:6 0.0492
9 inst_221:A3 0.2707
*RES
2 TAUGATE_44:Z net_51:1 0.2921
3 net_51:1 net_51:2 0.4162
4 net_51:2 net_51:3 0.1285
5 net_51:3 inst_225:A2 0.0491
6 net_51:3 net_51:4 0.0711
7 net_51:4 net_51:5 0.2365
8 net_51:5 net_51:6 0.0021
9 net_51:6 inst_221:A3 0.2080
*END

*D_NET TAUNET_59 2.0999
*CONN
*I inst_49:ZN O
*I TAUGATE_59:A I
*CAP
1 inst_49:ZN 0.4886
2 TAUNET_59:1 0.4404
3 TAUNET_59:2 0.3187
4 TAUNET_59:3 0.4272
5 TAUNET_59:4 0.0224
6 TAUGATE_59:A 0.4026
*RES
2 inst_49:ZN TAUNET_59:1 0.2784
3 TAUNET_59:1 TAUNET_59:2 0.1803
4 TAUNET_59:2 TAUNET_59:3 0.0882
5 TAUNET_59:3 TAUNET_59:4 0.2924
6 TAUNET_59:4 TAUGATE_59:A 0.4780
*END

*D_NET blif_reset_net 1.0540
*CONN
*I TAUGATE_28:Z O
*I inst_197:A I
*CAP
1 TAUGATE_28:Z 0.1182
2 blif_reset_net:1 0.1530
3 blif_reset_net:2 0.2582
4 blif_reset_net:3 0.4484
5 inst_197:A 0.0762
*RES
2 TAUGATE_28:Z blif_reset_net:1 0.1986
3 blif_reset_net:1 blif_reset_net:2 0.3922
4 blif_reset_net:2 blif_reset_net:3 0.3950
5 blif_reset_net:3 inst_197:A 0.2666
*END

*D_NET TAUNET_48 2.0823
*CONN
*I inst_82:ZN O
*I TAUGATE_48:A I
*CAP
1 inst_82:ZN 0.4671
2 TAUNET_48:1 0.3936
3 TAUNET_48:2 0.4880
4 TAUNET_48:3 0.4169
5 TAUGATE_48:A 0.3167
*RES
2 inst_82:ZN TAUNET_48:1 0.3376
3 TAUNET_48:1 TAUNET_48:2 0.1073
4 TAUNET_48:2 TAUNET_48:3 0.3579
5 TAUNET_48:3 TAUGATE_48:A 0.1300
*END

*D_NET net_50 0.8732
*CONN
*I TAUGATE_17:Z O
*I inst_98:A2 I
*CAP
1 TAUGATE_17:Z 0.2362
2 net_50:1 0.1996
3 net_50:2 0.3123
4 inst_98:A2 0.1251
*RES
2 TAUGATE_17:Z net_50:1 0.0048
3 net_50:1 net_50:2 0.3126
4 net_50:2 inst_98:A2 0.0195
*END

*D_NET net_97 1.8169
*CONN
*I TAUGATE_59:Z O
*I inst_74:A1 I
*CAP
1 TAUGATE_59:Z 0.3700
2 net_97:1 0.3466
3 net_97:2 0.4948
4 net_97:3 0.4038
5 net_97:4 0.1954
6 inst_74:A1 0.0063
*RES
2 TAUGATE_59:Z net_97:1 0.4904
3 net_97:1 net_97:2 0.0915
4 net_97:2 net_97:3 0.4619
5 net_97:3 net_97:4 0.1065
6 net_97:4 inst_74:A1 0.1990
*END

*D_NET net_162 0.5577
*CONN
*I TAUGATE_47:Z O
*I inst_113:A1 I
*CAP
1 TAUGATE_47:Z 0.0690
2 net_162:1 0.2934
3 net_162:2 0.0661
4 net_162:3 0.0281
5 inst_113:A1 0.1011
*RES
2 TAUGATE_47:Z net_162:1 0.2539
3 net_162:1 net_162:2 0.0765
4 net_162:2 net_162:3 0.1980
5 net_162:3 inst_113:A1 0.3226
*END

*D_NET TAUNET_42 2.4686
*CONN
*I inst_15:ZN O
*I TAUGATE_42:A I
*CAP
1 inst_15:ZN 0.2766
2 TAUNET_42:1 0.4267
3 TAUNET_42:2 0.4596
4 TAUNET_42:3 0.3295
5 TAUNET_42:4 0.4724
6 TAUNET_42:5 0.4631
7 TAUGATE_42:A 0.0407
*RES
2 inst_15:ZN TAUNET_42:1 0.4130
3 TAUNET_42:1 TAUNET_42:2 0.3462
4 TAUNET_42:2 TAUNET_42:3 0.0714
5 TAUNET_42:3 TAUNET_42:4 0.2110
6 TAUNET_42:4 TAUNET_42:5 0.2588
7 TAUNET_42:5 TAUGATE_42:A 0.0339
*END

*D_NET net_66 2.9481
*CONN
*I TAUGATE_21:Z O
*I inst_231:A1 I
*I inst_83:A1 I
*I inst_104:A1 I
*CAP
1 TAUGATE_21:Z 0.4874
2 net_66:1 0.2489
3 inst_231:A1 0.2584
4 net_66:2 0.2746
5 net_66:3 0.4228
6 inst_83:A1 0.1417
7 net_66:4 0.2042
8 net_66:5 0.2030
9 net_66:6 0.2656
10 inst_104:A1 0.4413
*RES
2 TAUGATE_21:Z net_66:1 0.0346
3 net_66:1 inst_231:A1 0.4333
4 net_66:1 net_66:2 0.3754
5 net_66:2 net_66:3 0.2016
6 net_66:3 inst_83:A1 0.0068
7 net_66:3 net_66:4 0.1336
8 net_66:4 net_66:5 0.4042
9 net_66:5 net_66:6 0.0451
10 net_66:6 inst_104:A1 0.2391
*END

*D_NET TAUNET_18 0.9045
*CONN
*I inst_136:ZN O
*I TAUGATE_18:A I
*CAP
1 inst_136:ZN 0.4146
2 TAUNET_18:1 0.2654
3 TAUGATE_18:A 0.2245
*RES
2 inst_136:ZN TAUNET_18:1 0.4797
3 TAUNET_18:1 TAUGATE_18:A 0.0551
*END

*D_NET TAUNET_45 1.5272
*CONN
*I inst_207:QN O
*I TAUGATE_45:A I
*CAP
1 inst_207:QN 0.0973
2 TAUNET_45:1 0.1903
3 TAUNET_45:2 0.2143
4 TAUNET_45:3 0.0701
5 TAUNET_45:4 0.2421
6 TAUNET_45:5 0.4634
7 TAUGATE_45:A 0.2497
*RES
2 inst_207:QN TAUNET_45:1 0.2766
3 TAUNET_45:1 TAUNET_45:2 0.3086
4 TAUNET_45:2 TAUNET_45:3 0.2353
5 TAUNET_45:3 TAUNET_45:4 0.4838
6 TAUNET_45:4 TAUNET_45:5 0.0722
7 TAUNET_45:5 TAUGATE_45:A 0.3539
*END

*D_NET TAUNET_21 1.2346
*CONN
*I inst_170:ZN O
*I TAUGATE_21:A I
*CAP
1 inst_170:ZN 0.0192
2 TAUNET_21:1 0.4054
3 TAUNET_21:2 0.3681
4 TAUGATE_21:A 0.4419
*RES
2 inst_170:ZN TAUNET_21:1 0.1561
3 TAUNET_21:1 TAUNET_21:2 0.1347
4 TAUNET_21:2 TAUGATE_21:A 0.0224
*END

*D_NET net_207 1.9103
*CONN
*I TAUGATE_50:Z O
*I inst_67:A3 I
*CAP
1 TAUGATE_50:Z 0.2244
2 net_207:1 0.1374
3 net_207:2 0.1713
4 net_207:3 0.2153
5 net_207:4 0.3119
6 net_207:5 0.4918
7 inst_67:A3 0.3583
*RES
2 TAUGATE_50:Z net_207:1 0.0251
3 net_207:1 net_207:2 0.0071
4 net_207:2 net_207:3 0.2242
5 net_207:3 net_207:4 0.4834
6 net_207:4 net_207:5 0.4589
7 net_207:5 inst_67:A3 0.0098
*END

*D_NET net_204 2.1429
*CONN
*I TAUGATE_46:Z O
*I inst_44:A2 I
*CAP
1 TAUGATE_46:Z 0.2846
2 net_204:1 0.1185
3 net_204:2 0.4585
4 net_204:3 0.3703
5 net_204:4 0.0365
6 net_204:5 0.4409
7 inst_44:A2 0.4335
*RES
2 TAUGATE_46:Z net_204:1 0.3158
3 net_204:1 net_204:2 0.2513
4 net_204:2 net_204:3 0.4798
5 net_204:3 net_204:4 0.1640
6 net_204:4 net_204:5 0.1778
7 net_204:5 inst_44:A2 0.3155
*END

*D_NET net_134 1.3545
*CONN
*I TAUGATE_42:Z O