*SPEF "IEEE 1481-1998"
*DESIGN "changes"
*DATE "Tue Dec 02 20:48:16 2014"
*VENDOR "TAU 2015 Contest"
*PROGRAM "Benchmark Parasitic Generator"
*VERSION "0.0"
*DESIGN_FLOW "NETLIST_TYPE_VERILOG"
*DIVIDER /
*DELIMITER :
*BUS_DELIMITER [ ]
*T_UNIT 1 PS
*C_UNIT 1 FF
*R_UNIT 1 KOHM
*L_UNIT 1 UH

*D_NET TAUNET_4 1.7439
*CONN
*I inst_53:ZN O
*I TAUGATE_4:A I
*CAP
1 inst_53:ZN 0.2611
2 TAUNET_4:1 0.4098
3 TAUNET_4:2 0.5009
4 TAUNET_4:3 0.2843
5 TAUGATE_4:A 0.2878
*RES
2 inst_53:ZN TAUNET_4:1 0.1659
3 TAUNET_4:1 TAUNET_4:2 0.2742
4 TAUNET_4:2 TAUNET_4:3 0.3494
5 TAUNET_4:3 TAUGATE_4:A 0.1485
*END

*D_NET TAUNET_2 1.3760
*CONN
*I inst_131:ZN O
*I TAUGATE_2:A I
*CAP
1 inst_131:ZN 0.2110
2 TAUNET_2:1 0.3070
3 TAUNET_2:2 0.3583
4 TAUNET_2:3 0.1395
5 TAUNET_2:4 0.0646
6 TAUNET_2:5 0.0794
7 TAUGATE_2:A 0.2161
*RES
2 inst_131:ZN TAUNET_2:1 0.1614
3 TAUNET_2:1 TAUNET_2:2 0.3312
4 TAUNET_2:2 TAUNET_2:3 0.3755
5 TAUNET_2:3 TAUNET_2:4 0.4644
6 TAUNET_2:4 TAUNET_2:5 0.4559
7 TAUNET_2:5 TAUGATE_2:A 0.4050
*END

*D_NET net_101 1.9117
*CONN
*I TAUGATE_3:Z O
*I inst_27:A2 I
*I inst_119:A I
*CAP
1 TAUGATE_3:Z 0.1670
2 net_101:1 0.2440
3 net_101:2 0.0332
4 inst_27:A2 0.0406
5 net_101:3 0.3706
6 net_101:4 0.0740
7 net_101:5 0.4871
8 inst_119:A 0.4951
*RES
2 TAUGATE_3:Z net_101:1 0.2732
3 net_101:1 net_101:2 0.0073
4 net_101:2 inst_27:A2 0.1308
5 net_101:1 net_101:3 0.4125
6 net_101:3 net_101:4 0.0565
7 net_101:4 net_101:5 0.1285
8 net_101:5 inst_119:A 0.0292
*END

*D_NET TAUNET_3 2.3577
*CONN
*I inst_25:ZN O
*I TAUGATE_3:A I
*CAP
1 inst_25:ZN 0.4507
2 TAUNET_3:1 0.3995
3 TAUNET_3:2 0.3845
4 TAUNET_3:3 0.4708
5 TAUNET_3:4 0.3056
6 TAUGATE_3:A 0.3464
*RES
2 inst_25:ZN TAUNET_3:1 0.0305
3 TAUNET_3:1 TAUNET_3:2 0.2383
4 TAUNET_3:2 TAUNET_3:3 0.4020
5 TAUNET_3:3 TAUNET_3:4 0.2529
6 TAUNET_3:4 TAUGATE_3:A 0.2665
*END

*D_NET net_191 7.9455
*CONN
*I TAUGATE_2:Z O
*I inst_183:A I
*I inst_226:A1 I
*I inst_49:A1 I
*I inst_72:A2 I
*I inst_229:A1 I
*I inst_99:A2 I
*I inst_35:A1 I
*CAP
1 TAUGATE_2:Z 0.1977
2 net_191:1 0.3276
3 inst_35:A1 0.3833
4 net_191:2 0.2805
5 net_191:3 0.1322
6 inst_226:A1 0.1905
7 net_191:4 0.2211
8 net_191:5 0.1955
9 net_191:6 0.1868
10 net_191:7 0.4889
11 inst_49:A1 0.0703
12 net_191:8 0.3990
13 inst_72:A2 0.4035
14 net_191:9 0.3196
15 net_191:10 0.4976
16 inst_229:A1 0.3591
17 net_191:11 0.4055
18 net_191:12 0.4519
19 net_191:13 0.4658
20 net_191:14 0.3690
21 inst_99:A2 0.4019
22 net_191:15 0.1782
23 net_191:16 0.4734
24 net_191:17 0.0376
25 net_191:18 0.0972
26 net_191:19 0.3594
27 inst_183:A 0.0525
*RES
2 TAUGATE_2:Z net_191:1 0.3292
3 net_191:1 inst_35:A1 0.0716
4 net_191:1 net_191:2 0.4017
5 net_191:2 net_191:3 0.4680
6 net_191:3 inst_226:A1 0.2976
7 net_191:2 net_191:4 0.3298
8 net_191:4 net_191:5 0.4131
9 net_191:5 net_191:6 0.3310
10 net_191:6 net_191:7 0.2621
11 net_191:7 inst_49:A1 0.4792
12 net_191:2 net_191:8 0.0219
13 net_191:8 inst_72:A2 0.0830
14 net_191:8 net_191:9 0.2780
15 net_191:9 net_191:10 0.2022
16 net_191:10 inst_229:A1 0.1593
17 net_191:9 net_191:11 0.0632
18 net_191:11 net_191:12 0.2503
19 net_191:12 net_191:13 0.4700
20 net_191:13 net_191:14 0.3789
21 net_191:14 inst_99:A2 0.3545
22 net_191:3 net_191:15 0.3248
23 net_191:15 net_191:16 0.2597
24 net_191:16 net_191:17 0.1267
25 net_191:17 net_191:18 0.3840
26 net_191:18 net_191:19 0.2434
27 net_191:19 inst_183:A 0.3726
*END

*D_NET net_106 1.5909
*CONN
*I TAUGATE_4:Z O
*I inst_17:A3 I
*CAP
1 TAUGATE_4:Z 0.2454
2 net_106:1 0.1921
3 net_106:2 0.1376
4 net_106:3 0.4443
5 net_106:4 0.1288
6 net_106:5 0.3022
7 inst_17:A3 0.1405
*RES
2 TAUGATE_4:Z net_106:1 0.0668
3 net_106:1 net_106:2 0.3699
4 net_106:2 net_106:3 0.4131
5 net_106:3 net_106:4 0.4004
6 net_106:4 net_106:5 0.4814
7 net_106:5 inst_17:A3 0.1341
*END

