*SPEF "IEEE 1481-1998"
*DESIGN "changes"
*DATE "Tue Dec 02 20:48:18 2014"
*VENDOR "TAU 2015 Contest"
*PROGRAM "Benchmark Parasitic Generator"
*VERSION "0.0"
*DESIGN_FLOW "NETLIST_TYPE_VERILOG"
*DIVIDER /
*DELIMITER :
*BUS_DELIMITER [ ]
*T_UNIT 1 PS
*C_UNIT 1 FF
*R_UNIT 1 KOHM
*L_UNIT 1 UH

*D_NET net_47 1.7439
*CONN
*I TAUGATE_165:Z O
*I inst_220:A3 I
*CAP
1 TAUGATE_165:Z 0.2611
2 net_47:1 0.4098
3 net_47:2 0.5009
4 net_47:3 0.2843
5 inst_220:A3 0.2878
*RES
2 TAUGATE_165:Z net_47:1 0.1659
3 net_47:1 net_47:2 0.2742
4 net_47:2 net_47:3 0.3494
5 net_47:3 inst_220:A3 0.1485
*END

*D_NET net_215 1.6938
*CONN
*I TAUGATE_316:Z O
*I inst_17:A1 I
*I inst_108:A2 I
*CAP
1 TAUGATE_316:Z 0.2110
2 net_215:1 0.3070
3 net_215:2 0.3583
4 net_215:3 0.1395
5 net_215:4 0.0646
6 net_215:5 0.0794
7 inst_108:A2 0.2161
8 net_215:6 0.2440
9 net_215:7 0.0332
10 inst_17:A1 0.0406
*RES
2 TAUGATE_316:Z net_215:1 0.1614
3 net_215:1 net_215:2 0.3312
4 net_215:2 net_215:3 0.3755
5 net_215:3 net_215:4 0.4644
6 net_215:4 net_215:5 0.4559
7 net_215:5 inst_108:A2 0.4050
8 net_215:2 net_215:6 0.2732
9 net_215:6 net_215:7 0.0073
10 net_215:7 inst_17:A1 0.1308
*END

*D_NET TAUNET_275 1.8161
*CONN
*I inst_133:ZN O
*I TAUGATE_275:A I
*CAP
1 inst_133:ZN 0.2909
2 TAUNET_275:1 0.0740
3 TAUNET_275:2 0.4871
4 TAUNET_275:3 0.4951
5 TAUNET_275:4 0.4125
6 TAUGATE_275:A 0.0565
*RES
2 inst_133:ZN TAUNET_275:1 0.1285
3 TAUNET_275:1 TAUNET_275:2 0.0292
4 TAUNET_275:2 TAUNET_275:3 0.2926
5 TAUNET_275:3 TAUNET_275:4 0.4507
6 TAUNET_275:4 TAUGATE_275:A 0.3356
*END

*D_NET TAUNET_114 1.9602
*CONN
*I inst_132:ZN O
*I TAUGATE_114:A I
*CAP
1 inst_132:ZN 0.3845
2 TAUNET_114:1 0.3056
3 TAUNET_114:2 0.3464
4 TAUNET_114:3 0.0305
5 TAUNET_114:4 0.2383
6 TAUNET_114:5 0.4020
7 TAUGATE_114:A 0.2529
*RES
2 inst_132:ZN TAUNET_114:1 0.2665
3 TAUNET_114:1 TAUNET_114:2 0.4354
4 TAUNET_114:2 TAUNET_114:3 0.1977
5 TAUNET_114:3 TAUNET_114:4 0.0788
6 TAUNET_114:4 TAUNET_114:5 0.3276
7 TAUNET_114:5 TAUGATE_114:A 0.3833
*END

*D_NET net_54 2.0296
*CONN
*I TAUGATE_190:Z O
*I inst_32:A2 I
*I inst_226:A2 I
*CAP
1 TAUGATE_190:Z 0.0716
2 net_54:1 0.1922
3 net_54:2 0.2805
4 net_54:3 0.1322
5 inst_226:A2 0.1905
6 net_54:4 0.2211
7 net_54:5 0.1955
8 net_54:6 0.1868
9 net_54:7 0.4889
10 inst_32:A2 0.0703
*RES
2 TAUGATE_190:Z net_54:1 0.4017
3 net_54:1 net_54:2 0.4680
4 net_54:2 net_54:3 0.2976
5 net_54:3 inst_226:A2 0.2331
6 net_54:2 net_54:4 0.3298
7 net_54:4 net_54:5 0.4131
8 net_54:5 net_54:6 0.3310
9 net_54:6 net_54:7 0.2621
10 net_54:7 inst_32:A2 0.4792
*END

*D_NET TAUNET_232 1.1591
*CONN
*I inst_218:QN O
*I TAUGATE_232:A I
*CAP
1 inst_218:QN 0.0717
2 TAUNET_232:1 0.4035
3 TAUNET_232:2 0.0219
4 TAUNET_232:3 0.0830
5 TAUNET_232:4 0.4539
6 TAUGATE_232:A 0.1250
*RES
2 inst_218:QN TAUNET_232:1 0.3196
3 TAUNET_232:1 TAUNET_232:2 0.4976
4 TAUNET_232:2 TAUNET_232:3 0.3591
5 TAUNET_232:3 TAUNET_232:4 0.2780
6 TAUNET_232:4 TAUGATE_232:A 0.2022
*END

*D_NET net_129 2.5322
*CONN
*I TAUGATE_301:Z O
*I inst_109:A2 I
*CAP
1 TAUGATE_301:Z 0.4382
2 net_129:1 0.4055
3 net_129:2 0.4519
4 net_129:3 0.4658
5 net_129:4 0.3690
6 inst_109:A2 0.4019
*RES
2 TAUGATE_301:Z net_129:1 0.0632
3 net_129:1 net_129:2 0.2503
4 net_129:2 net_129:3 0.4700
5 net_129:3 net_129:4 0.3789
6 net_129:4 inst_109:A2 0.3545
*END

*D_NET net_98 1.0398
*CONN
*I TAUGATE_237:Z O
*I inst_19:A2 I
*CAP
1 TAUGATE_237:Z 0.4316
2 net_98:1 0.4734
3 net_98:2 0.0376
4 inst_19:A2 0.0972
*RES
2 TAUGATE_237:Z net_98:1 0.3594
3 net_98:1 net_98:2 0.0525
4 net_98:2 inst_19:A2 0.3248
*END

*D_NET net_119 1.7532
*CONN
*I TAUGATE_186:Z O
*I inst_105:A2 I
*CAP
1 TAUGATE_186:Z 0.1267
2 net_119:1 0.2434
3 net_119:2 0.3726
4 net_119:3 0.2980
5 net_119:4 0.2454
6 inst_105:A2 0.4670
*RES
2 TAUGATE_186:Z net_119:1 0.1921
3 net_119:1 net_119:2 0.1376
4 net_119:2 net_119:3 0.4443
5 net_119:3 net_119:4 0.1288
6 net_119:4 inst_105:A2 0.3022
*END

*D_NET net_151 1.8873
*CONN
*I TAUGATE_329:Z O
*I inst_77:A1 I
*CAP
1 TAUGATE_329:Z 0.0668
2 net_151:1 0.4131
3 net_151:2 0.4004
4 net_151:3 0.4814
5 net_151:4 0.1341
6 inst_77:A1 0.3915
*RES
2 TAUGATE_329:Z net_151:1 0.0282
3 net_151:1 net_151:2 0.3089
4 net_151:2 net_151:3 0.0253
5 net_151:3 net_151:4 0.3105
6 net_151:4 inst_77:A1 0.1881
*END

*D_NET net_53 1.4805
*CONN
*I TAUGATE_314:Z O
*I inst_70:A1 I
*CAP
1 TAUGATE_314:Z 0.1592
2 net_53:1 0.2761
3 net_53:2 0.3643
4 net_53:3 0.2288
5 net_53:4 0.0666
6 inst_70:A1 0.3854
*RES
2 TAUGATE_314:Z net_53:1 0.3580
3 net_53:1 net_53:2 0.3774
4 net_53:2 net_53:3 0.2731
5 net_53:3 net_53:4 0.1525
6 net_53:4 inst_70:A1 0.0518
*END

*D_NET TAUNET_103 1.2665
*CONN
*I inst_92:ZN O
*I TAUGATE_103:A I
*CAP
1 inst_92:ZN 0.2154
2 TAUNET_103:1 0.1648
3 TAUNET_103:2 0.1855
4 TAUNET_103:3 0.0112
5 TAUNET_103:4 0.3530
6 TAUNET_103:5 0.1128
7 TAUGATE_103:A 0.2239
*RES
2 inst_92:ZN TAUNET_103:1 0.0917
3 TAUNET_103:1 TAUNET_103:2 0.4230
4 TAUNET_103:2 TAUNET_103:3 0.1494
5 TAUNET_103:3 TAUNET_103:4 0.3290
6 TAUNET_103:4 TAUNET_103:5 0.1620
7 TAUNET_103:5 TAUGATE_103:A 0.0029
*END

*D_NET net_210 1.0297
*CONN
*I TAUGATE_347:Z O
*I inst_73:A3 I
*CAP
1 TAUGATE_347:Z 0.1903
2 net_210:1 0.3484
3 net_210:2 0.0801
4 net_210:3 0.1392
5 net_210:4 0.1891
6 net_210:5 0.0464
7 inst_73:A3 0.0364
*RES
2 TAUGATE_347:Z net_210:1 0.0279
3 net_210:1 net_210:2 0.4104
4 net_210:2 net_210:3 0.0649
5 net_210:3 net_210:4 0.0510
6 net_210:4 net_210:5 0.1600
7 net_210:5 inst_73:A3 0.1748
*END

*D_NET TAUNET_177 1.6599
*CONN
*I inst_45:ZN O
*I TAUGATE_177:A I
*CAP
1 inst_45:ZN 0.1076
2 TAUNET_177:1 0.3388
3 TAUNET_177:2 0.4657
4 TAUNET_177:3 0.3595
5 TAUNET_177:4 0.2471
6 TAUNET_177:5 0.0832
7 TAUGATE_177:A 0.0580
*RES
2 inst_45:ZN TAUNET_177:1 0.3736
3 TAUNET_177:1 TAUNET_177:2 0.0395
4 TAUNET_177:2 TAUNET_177:3 0.3644
5 TAUNET_177:3 TAUNET_177:4 0.0829
6 TAUNET_177:4 TAUNET_177:5 0.1977
7 TAUNET_177:5 TAUGATE_177:A 0.4694
*END

*D_NET net_168 2.0853
*CONN
*I TAUGATE_294:Z O
*I inst_214:D I
*CAP
1 TAUGATE_294:Z 0.3882
2 net_168:1 0.0413
3 net_168:2 0.4651
4 net_168:3 0.4065
5 net_168:4 0.3164
6 net_168:5 0.3513
7 inst_214:D 0.1165
*RES
2 TAUGATE_294:Z net_168:1 0.0986
3 net_168:1 net_168:2 0.2243
4 net_168:2 net_168:3 0.1286
5 net_168:3 net_168:4 0.4269
6 net_168:4 net_168:5 0.2482
7 net_168:5 inst_214:D 0.2195
*END

*D_NET TAUNET_31 1.7569
*CONN
*I TAUGATE_207:Z O
*I TAUGATE_31:A I
*CAP
1 TAUGATE_207:Z 0.4091
2 TAUNET_31:1 0.3587
3 TAUNET_31:2 0.1869
4 TAUNET_31:3 0.4974
5 TAUGATE_31:A 0.3047
*RES
2 TAUGATE_207:Z TAUNET_31:1 0.1200
3 TAUNET_31:1 TAUNET_31:2 0.4969
4 TAUNET_31:2 TAUNET_31:3 0.1210
5 TAUNET_31:3 TAUGATE_31:A 0.1733
*END

*D_NET TAUNET_91 1.1896
*CONN
*I inst_196:ZN O
*I TAUGATE_91:A I
*CAP
1 inst_196:ZN 0.0283
2 TAUNET_91:1 0.2945
3 TAUNET_91:2 0.3177
4 TAUNET_91:3 0.2101
5 TAUGATE_91:A 0.3390
*RES
2 inst_196:ZN TAUNET_91:1 0.2046
3 TAUNET_91:1 TAUNET_91:2 0.3404
4 TAUNET_91:2 TAUNET_91:3 0.1317
5 TAUNET_91:3 TAUGATE_91:A 0.3617
*END

*D_NET TAUNET_208 1.2055
*CONN
*I inst_153:ZN O
*I TAUGATE_208:A I
*CAP
1 inst_153:ZN 0.3629
2 TAUNET_208:1 0.3900
3 TAUNET_208:2 0.0557
4 TAUNET_208:3 0.1253
5 TAUGATE_208:A 0.2716
*RES
2 inst_153:ZN TAUNET_208:1 0.3735
3 TAUNET_208:1 TAUNET_208:2 0.1079
4 TAUNET_208:2 TAUNET_208:3 0.3323
5 TAUNET_208:3 TAUGATE_208:A 0.2907
*END

*D_NET TAUNET_9 1.4383
*CONN
*I TAUGATE_222:Z O
*I TAUGATE_9:A I
*CAP
1 TAUGATE_222:Z 0.4966
2 TAUNET_9:1 0.2702
3 TAUNET_9:2 0.2135
4 TAUNET_9:3 0.0419
5 TAUNET_9:4 0.2773
6 TAUNET_9:5 0.0903
7 TAUGATE_9:A 0.0485
*RES
2 TAUGATE_222:Z TAUNET_9:1 0.4602
3 TAUNET_9:1 TAUNET_9:2 0.4262
4 TAUNET_9:2 TAUNET_9:3 0.2009
5 TAUNET_9:3 TAUNET_9:4 0.3114
6 TAUNET_9:4 TAUNET_9:5 0.3090
7 TAUNET_9:5 TAUGATE_9:A 0.3972
*END

*D_NET TAUNET_128 1.1430
*CONN
*I inst_227:ZN O
*I TAUGATE_128:A I
*CAP
1 inst_227:ZN 0.2443
2 TAUNET_128:1 0.3734
3 TAUNET_128:2 0.1567
4 TAUNET_128:3 0.1247
5 TAUGATE_128:A 0.2439
*RES
2 inst_227:ZN TAUNET_128:1 0.2588
3 TAUNET_128:1 TAUNET_128:2 0.4474
4 TAUNET_128:2 TAUNET_128:3 0.3528
5 TAUNET_128:3 TAUGATE_128:A 0.0472
*END

*D_NET TAUNET_161 1.3929
*CONN
*I inst_66:ZN O
*I TAUGATE_161:A I
*CAP
1 inst_66:ZN 0.1981
2 TAUNET_161:1 0.0169
3 TAUNET_161:2 0.4026
4 TAUNET_161:3 0.4684
5 TAUNET_161:4 0.2490
6 TAUGATE_161:A 0.0579
*RES
2 inst_66:ZN TAUNET_161:1 0.0423
3 TAUNET_161:1 TAUNET_161:2 0.2861
4 TAUNET_161:2 TAUNET_161:3 0.4278
5 TAUNET_161:3 TAUNET_161:4 0.3875
6 TAUNET_161:4 TAUGATE_161:A 0.4796
*END

*D_NET TAUNET_249 1.0064
*CONN
*I inst_226:ZN O
*I TAUGATE_249:A I
*CAP
1 inst_226:ZN 0.1554
2 TAUNET_249:1 0.4380
3 TAUGATE_249:A 0.4130
*RES
2 inst_226:ZN TAUNET_249:1 0.4990
3 TAUNET_249:1 TAUGATE_249:A 0.2134
*END

*D_NET net_187 2.0765
*CONN
*I TAUGATE_138:Z O
*I inst_42:A1 I
*CAP
1 TAUGATE_138:Z 0.4947
2 net_187:1 0.2854
3 net_187:2 0.4464
4 net_187:3 0.2438
5 net_187:4 0.2969
6 inst_42:A1 0.3091
*RES
2 TAUGATE_138:Z net_187:1 0.5006
3 net_187:1 net_187:2 0.2264
4 net_187:2 net_187:3 0.3973
5 net_187:3 net_187:4 0.2044
6 net_187:4 inst_42:A1 0.1531
*END

*D_NET net_111 1.6751
*CONN
*I TAUGATE_263:Z O
*I inst_70:A3 I
*I inst_13:A1 I
*CAP
1 TAUGATE_263:Z 0.2618
2 net_111:1 0.4002
3 net_111:2 0.3652
4 net_111:3 0.1857
5 inst_13:A1 0.0562
6 net_111:4 0.1026
7 net_111:5 0.1939
8 inst_70:A3 0.1095
*RES
2 TAUGATE_263:Z net_111:1 0.0882
3 net_111:1 net_111:2 0.4386
4 net_111:2 net_111:3 0.2715
5 net_111:3 inst_13:A1 0.0199
6 net_111:1 net_111:4 0.0212
7 net_111:4 net_111:5 0.1417
8 net_111:5 inst_70:A3 0.2190
*END

*D_NET net_90 1.5644
*CONN
*I TAUGATE_209:Z O
*I inst_15:A2 I
*CAP
1 TAUGATE_209:Z 0.1138
2 net_90:1 0.3663
3 net_90:2 0.2540
4 net_90:3 0.0526
5 net_90:4 0.2388
6 net_90:5 0.1787
7 inst_15:A2 0.3603
*RES
2 TAUGATE_209:Z net_90:1 0.0603
3 net_90:1 net_90:2 0.0863
4 net_90:2 net_90:3 0.3102
5 net_90:3 net_90:4 0.1239
6 net_90:4 net_90:5 0.2473
7 net_90:5 inst_15:A2 0.0055
*END

*D_NET TAUNET_192 1.2459
*CONN
*I inst_200:QN O
*I TAUGATE_192:A I
*CAP
1 inst_200:QN 0.2412
2 TAUNET_192:1 0.4441
3 TAUNET_192:2 0.4218
4 TAUNET_192:3 0.0848
5 TAUNET_192:4 0.0266
6 TAUGATE_192:A 0.0274
*RES
2 inst_200:QN TAUNET_192:1 0.4218
3 TAUNET_192:1 TAUNET_192:2 0.2061
4 TAUNET_192:2 TAUNET_192:3 0.2110
5 TAUNET_192:3 TAUNET_192:4 0.4583
6 TAUNET_192:4 TAUGATE_192:A 0.3985
*END

*D_NET TAUNET_151 1.9898
*CONN
*I TAUGATE_36:Z O
*I TAUGATE_151:A I
*CAP
1 TAUGATE_36:Z 0.0725
2 TAUNET_151:1 0.3124
3 TAUNET_151:2 0.3685
4 TAUNET_151:3 0.4317
5 TAUNET_151:4 0.1801
6 TAUNET_151:5 0.2826
7 TAUGATE_151:A 0.3420
*RES
2 TAUGATE_36:Z TAUNET_151:1 0.0965
3 TAUNET_151:1 TAUNET_151:2 0.2555
4 TAUNET_151:2 TAUNET_151:3 0.1304
5 TAUNET_151:3 TAUNET_151:4 0.3675
6 TAUNET_151:4 TAUNET_151:5 0.4634
7 TAUNET_151:5 TAUGATE_151:A 0.2869
*END

*D_NET net_225 1.5530
*CONN
*I TAUGATE_200:Z O
*I inst_224:A1 I
*I inst_117:A I
*I inst_22:A2 I
*CAP
1 TAUGATE_200:Z 0.1182
2 net_225:1 0.0608
3 inst_224:A1 0.3721
4 net_225:2 0.0264
5 net_225:3 0.2502
6 inst_117:A 0.2506
7 net_225:4 0.1704
8 net_225:5 0.2303
9 net_225:6 0.0121
10 inst_22:A2 0.0620
*RES
2 TAUGATE_200:Z net_225:1 0.4648
3 net_225:1 inst_224:A1 0.2376
4 net_225:1 net_225:2 0.4486
5 net_225:2 net_225:3 0.0641
6 net_225:3 inst_117:A 0.0138
7 net_225:1 net_225:4 0.0267
8 net_225:4 net_225:5 0.1278
9 net_225:5 net_225:6 0.1079
10 net_225:6 inst_22:A2 0.3621
*END

*D_NET TAUNET_141 2.0149
*CONN
*I TAUGATE_23:Z O
*I TAUGATE_141:A I
*CAP
1 TAUGATE_23:Z 0.3490
2 TAUNET_141:1 0.3195
3 TAUNET_141:2 0.4748
4 TAUNET_141:3 0.2505
5 TAUNET_141:4 0.2036
6 TAUNET_141:5 0.3990
7 TAUGATE_141:A 0.0185
*RES
2 TAUGATE_23:Z TAUNET_141:1 0.3777
3 TAUNET_141:1 TAUNET_141:2 0.2437
4 TAUNET_141:2 TAUNET_141:3 0.3641
5 TAUNET_141:3 TAUNET_141:4 0.1411
6 TAUNET_141:4 TAUNET_141:5 0.2452
7 TAUNET_141:5 TAUGATE_141:A 0.2723
*END

*D_NET net_85 0.3445
*CONN
*I TAUGATE_126:Z O
*I inst_20:A3 I
*CAP
1 TAUGATE_126:Z 0.2449
2 net_85:1 0.0917
3 inst_20:A3 0.0078
*RES
2 TAUGATE_126:Z net_85:1 0.0227
3 net_85:1 inst_20:A3 0.0264
*END

*D_NET TAUNET_350 0.9773
*CONN
*I TAUGATE_1:Z O
*I TAUGATE_350:A I
*CAP
1 TAUGATE_1:Z 0.1906
2 TAUNET_350:1 0.0937
3 TAUNET_350:2 0.2944
4 TAUGATE_350:A 0.3987
*RES
2 TAUGATE_1:Z TAUNET_350:1 0.0209
3 TAUNET_350:1 TAUNET_350:2 0.1182
4 TAUNET_350:2 TAUGATE_350:A 0.1067
*END

*D_NET net_124 3.7134
*CONN
*I TAUGATE_245:Z O
*I inst_221:A1 I
*I inst_104:A2 I
*CAP
1 TAUGATE_245:Z 0.3672
2 net_124:1 0.1157
3 net_124:2 0.1901
4 net_124:3 0.2138
5 net_124:4 0.5008
6 net_124:5 0.2979
7 inst_104:A2 0.3428
8 net_124:6 0.3676
9 net_124:7 0.1603
10 net_124:8 0.4423
11 net_124:9 0.1159
12 net_124:10 0.4527
13 inst_221:A1 0.1465
*RES
2 TAUGATE_245:Z net_124:1 0.2325
3 net_124:1 net_124:2 0.2733
4 net_124:2 net_124:3 0.1266
5 net_124:3 net_124:4 0.3814
6 net_124:4 net_124:5 0.1363
7 net_124:5 inst_104:A2 0.3277
8 net_124:4 net_124:6 0.1463
9 net_124:6 net_124:7 0.4621
10 net_124:7 net_124:8 0.4065
11 net_124:8 net_124:9 0.0227
12 net_124:9 net_124:10 0.2236
13 net_124:10 inst_221:A1 0.4114
*END

*D_NET net_160 0.9678
*CONN
*I TAUGATE_175:Z O
*I inst_218:D I
*CAP
1 TAUGATE_175:Z 0.1546
2 net_160:1 0.4367
3 net_160:2 0.3452
4 inst_218:D 0.0313
*RES
2 TAUGATE_175:Z net_160:1 0.1217
3 net_160:1 net_160:2 0.0111
4 net_160:2 inst_218:D 0.1222
*END

*D_NET TAUNET_201 2.0377
*CONN
*I TAUGATE_49:Z O
*I TAUGATE_201:A I
*CAP
1 TAUGATE_49:Z 0.1692
2 TAUNET_201:1 0.4978
3 TAUNET_201:2 0.2563
4 TAUNET_201:3 0.2595
5 TAUNET_201:4 0.2603
6 TAUNET_201:5 0.2874
7 TAUGATE_201:A 0.3072
*RES
2 TAUGATE_49:Z TAUNET_201:1 0.2768
3 TAUNET_201:1 TAUNET_201:2 0.1679
4 TAUNET_201:2 TAUNET_201:3 0.2053
5 TAUNET_201:3 TAUNET_201:4 0.2140
6 TAUNET_201:4 TAUNET_201:5 0.3306
7 TAUNET_201:5 TAUGATE_201:A 0.1569
*END

*D_NET TAUNET_87 2.5545
*CONN
*I inst_195:ZN O
*I TAUGATE_87:A I
*CAP
1 inst_195:ZN 0.2138
2 TAUNET_87:1 0.3806
3 TAUNET_87:2 0.4946
4 TAUNET_87:3 0.4608
5 TAUNET_87:4 0.4692
6 TAUNET_87:5 0.4766
7 TAUGATE_87:A 0.0589
*RES
2 inst_195:ZN TAUNET_87:1 0.0962
3 TAUNET_87:1 TAUNET_87:2 0.2415
4 TAUNET_87:2 TAUNET_87:3 0.1750
5 TAUNET_87:3 TAUNET_87:4 0.4103
6 TAUNET_87:4 TAUNET_87:5 0.0845
7 TAUNET_87:5 TAUGATE_87:A 0.1888
*END

*D_NET TAUNET_72 1.2719
*CONN
*I inst_33:ZN O
*I TAUGATE_72:A I
*CAP
1 inst_33:ZN 0.1762
2 TAUNET_72:1 0.0806
3 TAUNET_72:2 0.0407
4 TAUNET_72:3 0.2069
5 TAUNET_72:4 0.0491
6 TAUNET_72:5 0.4137
7 TAUGATE_72:A 0.3046
*RES
2 inst_33:ZN TAUNET_72:1 0.2987
3 TAUNET_72:1 TAUNET_72:2 0.2640
4 TAUNET_72:2 TAUNET_72:3 0.1831
5 TAUNET_72:3 TAUNET_72:4 0.4110
6 TAUNET_72:4 TAUNET_72:5 0.0191
7 TAUNET_72:5 TAUGATE_72:A 0.3538
*END

*D_NET net_4 0.8608
*CONN
*I TAUGATE_333:Z O
*I inst_144:A I
*CAP
1 TAUGATE_333:Z 0.3629
2 net_4:1 0.2007
3 inst_144:A 0.2971
*RES
2 TAUGATE_333:Z net_4:1 0.4025
3 net_4:1 inst_144:A 0.5010
*END

*D_NET TAUNET_134 0.8674
*CONN
*I inst_146:ZN O
*I TAUGATE_134:A I
*CAP
1 inst_146:ZN 0.4649
2 TAUNET_134:1 0.1062
3 TAUGATE_134:A 0.2963
*RES
2 inst_146:ZN TAUNET_134:1 0.4911
3 TAUNET_134:1 TAUGATE_134:A 0.2002
*END

*D_NET TAUNET_284 1.0917
*CONN
*I inst_166:ZN O
*I TAUGATE_284:A I
*CAP
1 inst_166:ZN 0.3761
2 TAUNET_284:1 0.4298
3 TAUGATE_284:A 0.2857
*RES
2 inst_166:ZN TAUNET_284:1 0.2634
3 TAUNET_284:1 TAUGATE_284:A 0.0470
*END

*D_NET TAUNET_267 1.5176
*CONN
*I inst_169:ZN O
*I TAUGATE_267:A I
*CAP
1 inst_169:ZN 0.1738
2 TAUNET_267:1 0.4556
3 TAUNET_267:2 0.1284
4 TAUNET_267:3 0.0036
5 TAUNET_267:4 0.1731
6 TAUNET_267:5 0.2737
7 TAUGATE_267:A 0.3095
*RES
2 inst_169:ZN TAUNET_267:1 0.4895
3 TAUNET_267:1 TAUNET_267:2 0.4033
4 TAUNET_267:2 TAUNET_267:3 0.2734
5 TAUNET_267:3 TAUNET_267:4 0.3461
6 TAUNET_267:4 TAUNET_267:5 0.3729
7 TAUNET_267:5 TAUGATE_267:A 0.0418
*END

*D_NET TAUNET_44 1.1548
*CONN
*I TAUGATE_264:Z O
*I TAUGATE_44:A I
*CAP
1 TAUGATE_264:Z 0.3815
2 TAUNET_44:1 0.4915
3 TAUNET_44:2 0.0683
4 TAUGATE_44:A 0.2135
*RES
2 TAUGATE_264:Z TAUNET_44:1 0.4484
3 TAUNET_44:1 TAUNET_44:2 0.1379
4 TAUNET_44:2 TAUGATE_44:A 0.1139
*END

*D_NET TAUNET_207 1.0254
*CONN
*I inst_79:ZN O
*I TAUGATE_207:A I
*CAP
1 inst_79:ZN 0.0861
2 TAUNET_207:1 0.4806
3 TAUNET_207:2 0.3473
4 TAUGATE_207:A 0.1114
*RES
2 inst_79:ZN TAUNET_207:1 0.0198
3 TAUNET_207:1 TAUNET_207:2 0.2366
4 TAUNET_207:2 TAUGATE_207:A 0.1100
*END

*D_NET net_35 1.2760
*CONN
*I TAUGATE_218:Z O
*I inst_36:A1 I
*CAP
1 TAUGATE_218:Z 0.3290
2 net_35:1 0.4236
3 net_35:2 0.3328
4 inst_36:A1 0.1906
*RES
2 TAUGATE_218:Z net_35:1 0.5003
3 net_35:1 net_35:2 0.4347
4 net_35:2 inst_36:A1 0.3044
*END

*D_NET net_16 1.5228
*CONN
*I TAUGATE_309:Z O
*I inst_142:A I
*CAP
1 TAUGATE_309:Z 0.0096
2 net_16:1 0.2377
3 net_16:2 0.2571
4 net_16:3 0.3610
5 net_16:4 0.0042
6 net_16:5 0.2690
7 inst_142:A 0.3841
*RES
2 TAUGATE_309:Z net_16:1 0.3400
3 net_16:1 net_16:2 0.2352
4 net_16:2 net_16:3 0.3112
5 net_16:3 net_16:4 0.1345
6 net_16:4 net_16:5 0.4134
7 net_16:5 inst_142:A 0.0741
*END

*D_NET TAUNET_56 0.9047
*CONN
*I TAUGATE_88:Z O
*I TAUGATE_56:A I
*CAP
1 TAUGATE_88:Z 0.4891
2 TAUNET_56:1 0.2122
3 TAUGATE_56:A 0.2034
*RES
2 TAUGATE_88:Z TAUNET_56:1 0.1253
3 TAUNET_56:1 TAUGATE_56:A 0.2112
*END

*D_NET net_193 1.0467
*CONN
*I TAUGATE_332:Z O
*I inst_223:A2 I
*I inst_130:A I
*CAP
1 TAUGATE_332:Z 0.1106
2 net_193:1 0.2644
3 inst_223:A2 0.3395
4 net_193:2 0.0383
5 inst_130:A 0.2939
*RES
2 TAUGATE_332:Z net_193:1 0.4160
3 net_193:1 inst_223:A2 0.1311
4 net_193:1 net_193:2 0.2177
5 net_193:2 inst_130:A 0.0520
*END

*D_NET net_120 1.5382
*CONN
*I TAUGATE_167:Z O
*I inst_175:A I
*CAP
1 TAUGATE_167:Z 0.3277
2 net_120:1 0.1825
3 net_120:2 0.4154
4 net_120:3 0.4205
5 inst_175:A 0.1921
*RES
2 TAUGATE_167:Z net_120:1 0.3303
3 net_120:1 net_120:2 0.0500
4 net_120:2 net_120:3 0.3450
5 net_120:3 inst_175:A 0.2552
*END

*D_NET TAUNET_346 0.9333
*CONN
*I inst_192:ZN O
*I TAUGATE_346:A I
*CAP
1 inst_192:ZN 0.3943
2 TAUNET_346:1 0.3586
3 TAUGATE_346:A 0.1804
*RES
2 inst_192:ZN TAUNET_346:1 0.2132
3 TAUNET_346:1 TAUGATE_346:A 0.3448
*END

*D_NET TAUNET_142 0.6797
*CONN
*I inst_55:ZN O
*I TAUGATE_142:A I
*CAP
1 inst_55:ZN 0.0169
2 TAUNET_142:1 0.3418
3 TAUNET_142:2 0.0277
4 TAUNET_142:3 0.2232
5 TAUGATE_142:A 0.0700
*RES
2 inst_55:ZN TAUNET_142:1 0.3825
3 TAUNET_142:1 TAUNET_142:2 0.4916
4 TAUNET_142:2 TAUNET_142:3 0.0258
5 TAUNET_142:3 TAUGATE_142:A 0.0722
*END

*D_NET TAUNET_211 0.1761
*CONN
*I TAUGATE_19:Z O
*I TAUGATE_211:A I
*CAP
1 TAUGATE_19:Z 0.0274
2 TAUNET_211:1 0.0758
3 TAUGATE_211:A 0.0730
*RES
2 TAUGATE_19:Z TAUNET_211:1 0.2996
3 TAUNET_211:1 TAUGATE_211:A 0.1500
*END

*D_NET net_201 3.5309
*CONN
*I TAUGATE_199:Z O
*I inst_180:A I
*I inst_28:A1 I
*I inst_179:A I
*I inst_2:A1 I
*CAP
1 TAUGATE_199:Z 0.0605
2 net_201:1 0.4347
3 net_201:2 0.2976
4 inst_179:A 0.3531
5 net_201:3 0.2983
6 net_201:4 0.4269
7 net_201:5 0.0493
8 net_201:6 0.0341
9 inst_28:A1 0.3020
10 net_201:7 0.3051
11 inst_180:A 0.1197
12 net_201:8 0.3150
13 net_201:9 0.0137
14 net_201:10 0.2108
15 inst_2:A1 0.3101
*RES
2 TAUGATE_199:Z net_201:1 0.0316
3 net_201:1 net_201:2 0.1823
4 net_201:2 inst_179:A 0.0755
5 net_201:2 net_201:3 0.3389
6 net_201:3 net_201:4 0.4000
7 net_201:4 net_201:5 0.0188
8 net_201:5 net_201:6 0.4709
9 net_201:6 inst_28:A1 0.4204
10 net_201:3 net_201:7 0.2956
11 net_201:7 inst_180:A 0.2210
12 net_201:2 net_201:8 0.0161
13 net_201:8 net_201:9 0.2047
14 net_201:9 net_201:10 0.3729
15 net_201:10 inst_2:A1 0.0610
*END

*D_NET net_109 3.5226
*CONN
*I TAUGATE_273:Z O
*I inst_21:A1 I
*I inst_7:A2 I
*CAP
1 TAUGATE_273:Z 0.2910
2 net_109:1 0.3083
3 net_109:2 0.1250
4 net_109:3 0.3526
5 net_109:4 0.3715
6 inst_7:A2 0.3144
7 net_109:5 0.3118
8 net_109:6 0.4981
9 net_109:7 0.3134
10 net_109:8 0.4059
11 net_109:9 0.1396
12 inst_21:A1 0.0910
*RES
2 TAUGATE_273:Z net_109:1 0.3618
3 net_109:1 net_109:2 0.0820
4 net_109:2 net_109:3 0.2174
5 net_109:3 net_109:4 0.3638
6 net_109:4 inst_7:A2 0.4097
7 net_109:2 net_109:5 0.1278
8 net_109:5 net_109:6 0.3093
9 net_109:6 net_109:7 0.3342
10 net_109:7 net_109:8 0.2150
11 net_109:8 net_109:9 0.0109
12 net_109:9 inst_21:A1 0.1830
*END

*D_NET TAUNET_221 0.3175
*CONN
*I TAUGATE_3:Z O
*I TAUGATE_221:A I
*CAP
1 TAUGATE_3:Z 0.0712
2 TAUNET_221:1 0.1986
3 TAUGATE_221:A 0.0476
*RES
2 TAUGATE_3:Z TAUNET_221:1 0.0521
3 TAUNET_221:1 TAUGATE_221:A 0.0546
*END

*D_NET net_80 1.7875
*CONN
*I TAUGATE_230:Z O
*I inst_54:A1 I
*CAP
1 TAUGATE_230:Z 0.2737
2 net_80:1 0.2677
3 net_80:2 0.2426
4 net_80:3 0.1466
5 net_80:4 0.2784
6 net_80:5 0.2008
7 inst_54:A1 0.3776
*RES
2 TAUGATE_230:Z net_80:1 0.2937
3 net_80:1 net_80:2 0.0093
4 net_80:2 net_80:3 0.2822
5 net_80:3 net_80:4 0.4311
6 net_80:4 net_80:5 0.0309
7 net_80:5 inst_54:A1 0.1138
*END

*D_NET net_65 1.6740
*CONN
*I TAUGATE_164:Z O
*I inst_16:A3 I
*CAP
1 TAUGATE_164:Z 0.3567
2 net_65:1 0.2336
3 net_65:2 0.3863
4 net_65:3 0.2365
5 net_65:4 0.1037
6 inst_16:A3 0.3572
*RES
2 TAUGATE_164:Z net_65:1 0.2211
3 net_65:1 net_65:2 0.2185
4 net_65:2 net_65:3 0.2266
5 net_65:3 net_65:4 0.2538
6 net_65:4 inst_16:A3 0.1297
*END

*D_NET TAUNET_81 1.5261
*CONN
*I TAUGATE_40:Z O
*I TAUGATE_81:A I
*CAP
1 TAUGATE_40:Z 0.2417
2 TAUNET_81:1 0.4262
3 TAUNET_81:2 0.3737
4 TAUNET_81:3 0.3015
5 TAUGATE_81:A 0.1830
*RES
2 TAUGATE_40:Z TAUNET_81:1 0.3035
3 TAUNET_81:1 TAUNET_81:2 0.4053
4 TAUNET_81:2 TAUNET_81:3 0.0863
5 TAUNET_81:3 TAUGATE_81:A 0.2362
*END

*D_NET TAUNET_189 1.0858
*CONN
*I TAUGATE_43:Z O
*I TAUGATE_189:A I
*CAP
1 TAUGATE_43:Z 0.0277
2 TAUNET_189:1 0.2912
3 TAUNET_189:2 0.1111
4 TAUNET_189:3 0.3711
5 TAUNET_189:4 0.0512
6 TAUNET_189:5 0.1351
7 TAUGATE_189:A 0.0984
*RES
2 TAUGATE_43:Z TAUNET_189:1 0.0368
3 TAUNET_189:1 TAUNET_189:2 0.4376
4 TAUNET_189:2 TAUNET_189:3 0.1423
5 TAUNET_189:3 TAUNET_189:4 0.1283
6 TAUNET_189:4 TAUNET_189:5 0.1146
7 TAUNET_189:5 TAUGATE_189:A 0.3234
*END

*D_NET TAUNET_154 1.6441
*CONN
*I inst_142:ZN O
*I TAUGATE_154:A I
*CAP
1 inst_142:ZN 0.4832
2 TAUNET_154:1 0.3781
3 TAUNET_154:2 0.3766
4 TAUNET_154:3 0.0185
5 TAUGATE_154:A 0.3877
*RES
2 inst_142:ZN TAUNET_154:1 0.1588
3 TAUNET_154:1 TAUNET_154:2 0.3738
4 TAUNET_154:2 TAUNET_154:3 0.4556
5 TAUNET_154:3 TAUGATE_154:A 0.1835
*END

*D_NET net_96 1.1460
*CONN
*I TAUGATE_225:Z O
*I inst_64:A3 I
*CAP
1 TAUGATE_225:Z 0.2614
2 net_96:1 0.2164
3 net_96:2 0.4372
4 net_96:3 0.1158
5 inst_64:A3 0.1153
*RES
2 TAUGATE_225:Z net_96:1 0.3810
3 net_96:1 net_96:2 0.1100
4 net_96:2 net_96:3 0.1662
5 net_96:3 inst_64:A3 0.3178
*END

*D_NET G213 2.4376
*CONN
*I TAUGATE_168:Z O
*P G213 O
*I inst_31:A1 I
*CAP
1 TAUGATE_168:Z 0.2497
2 G213:1 0.2343
3 G213:2 0.0981
4 G213:3 0.3461
5 G213:4 0.2382
6 G213:5 0.4109
7 inst_31:A1 0.0945
8 G213:6 0.4527
9 G213 0.3131
*RES
2 TAUGATE_168:Z G213:1 0.2326
3 G213:1 G213:2 0.0121
4 G213:2 G213:3 0.2674
5 G213:3 G213:4 0.2072
6 G213:4 G213:5 0.0414
7 G213:5 inst_31:A1 0.2455
8 G213:2 G213:6 0.4392
9 G213:6 G213 0.4048
*END

*D_NET net_167 1.7566
*CONN
*I TAUGATE_250:Z O
*I inst_213:D I
*CAP
1 TAUGATE_250:Z 0.3283
2 net_167:1 0.4199
3 net_167:2 0.3736
4 net_167:3 0.3306
5 inst_213:D 0.3042
*RES
2 TAUGATE_250:Z net_167:1 0.1317
3 net_167:1 net_167:2 0.1481
4 net_167:2 net_167:3 0.2485
5 net_167:3 inst_213:D 0.2201
*END

*D_NET net_136 2.1088
*CONN
*I TAUGATE_274:Z O
*I inst_88:A1 I
*I inst_192:A I
*CAP
1 TAUGATE_274:Z 0.3013
2 net_136:1 0.0262
3 inst_192:A 0.3812
4 net_136:2 0.2523
5 net_136:3 0.0497
6 net_136:4 0.4938
7 net_136:5 0.3913
8 inst_88:A1 0.2131
*RES
2 TAUGATE_274:Z net_136:1 0.0656
3 net_136:1 inst_192:A 0.1550
4 net_136:1 net_136:2 0.3201
5 net_136:2 net_136:3 0.0320
6 net_136:3 net_136:4 0.2786
7 net_136:4 net_136:5 0.3378
8 net_136:5 inst_88:A1 0.4364
*END

*D_NET net_207 1.5961
*CONN
*I TAUGATE_195:Z O
*I inst_67:A3 I
*CAP
1 TAUGATE_195:Z 0.4527
2 net_207:1 0.3641
3 net_207:2 0.1740
4 net_207:3 0.2701
5 inst_67:A3 0.3351
*RES
2 TAUGATE_195:Z net_207:1 0.4105
3 net_207:1 net_207:2 0.3004
4 net_207:2 net_207:3 0.3665
5 net_207:3 inst_67:A3 0.1341
*END

*D_NET TAUNET_15 0.7589
*CONN
*I TAUGATE_79:Z O
*I TAUGATE_15:A I
*CAP
1 TAUGATE_79:Z 0.1706
2 TAUNET_15:1 0.0751
3 TAUNET_15:2 0.1227
4 TAUNET_15:3 0.0294
5 TAUNET_15:4 0.0059
6 TAUGATE_15:A 0.3552
*RES
2 TAUGATE_79:Z TAUNET_15:1 0.3839
3 TAUNET_15:1 TAUNET_15:2 0.1840
4 TAUNET_15:2 TAUNET_15:3 0.4010
5 TAUNET_15:3 TAUNET_15:4 0.3573
6 TAUNET_15:4 TAUGATE_15:A 0.4559
*END

*D_NET net_126 7.7884
*CONN
*I TAUGATE_284:Z O
*I inst_14:A2 I
*I inst_58:A1 I
*I inst_13:A2 I
*I inst_40:A1 I
*I inst_41:A1 I
*CAP
1 TAUGATE_284:Z 0.1715
2 net_126:1 0.3594
3 net_126:2 0.4902
4 net_126:3 0.4716
5 net_126:4 0.2112
6 inst_40:A1 0.1762
7 net_126:5 0.4669
8 net_126:6 0.1932
9 net_126:7 0.0675
10 net_126:8 0.0053
11 net_126:9 0.1459
12 inst_58:A1 0.0437
13 net_126:10 0.1669
14 net_126:11 0.4800
15 net_126:12 0.4518
16 net_126:13 0.0570
17 net_126:14 0.4909
18 inst_13:A2 0.0572
19 net_126:15 0.4474
20 net_126:16 0.2931
21 net_126:17 0.2848
22 net_126:18 0.2246
23 net_126:19 0.3320
24 inst_14:A2 0.3870
25 net_126:20 0.3589
26 net_126:21 0.4697
27 inst_41:A1 0.4844
*RES
2 TAUGATE_284:Z net_126:1 0.1166
3 net_126:1 net_126:2 0.1660
4 net_126:2 net_126:3 0.2177
5 net_126:3 net_126:4 0.2908
6 net_126:4 inst_40:A1 0.3318
7 net_126:3 net_126:5 0.4598
8 net_126:5 net_126:6 0.3838
9 net_126:6 net_126:7 0.2033
10 net_126:7 net_126:8 0.3263
11 net_126:8 net_126:9 0.4574
12 net_126:9 inst_58:A1 0.4683
13 net_126:3 net_126:10 0.5008
14 net_126:10 net_126:11 0.1013
15 net_126:11 net_126:12 0.2457
16 net_126:12 net_126:13 0.4210
17 net_126:13 net_126:14 0.2594
18 net_126:14 inst_13:A2 0.3565
19 net_126:12 net_126:15 0.3663
20 net_126:15 net_126:16 0.1512
21 net_126:16 net_126:17 0.1368
22 net_126:17 net_126:18 0.4493
23 net_126:18 net_126:19 0.4663
24 net_126:19 inst_14:A2 0.2866
25 net_126:7 net_126:20 0.0401
26 net_126:20 net_126:21 0.2861
27 net_126:21 inst_41:A1 0.1883
*END

*D_NET TAUNET_182 1.2973
*CONN
*I TAUGATE_15:Z O
*I TAUGATE_182:A I
*CAP
1 TAUGATE_15:Z 0.0604
2 TAUNET_182:1 0.2921
3 TAUNET_182:2 0.4162
4 TAUNET_182:3 0.1285
5 TAUNET_182:4 0.0491
6 TAUGATE_182:A 0.3511
*RES
2 TAUGATE_15:Z TAUNET_182:1 0.2111
3 TAUNET_182:1 TAUNET_182:2 0.3010
4 TAUNET_182:2 TAUNET_182:3 0.1515
5 TAUNET_182:3 TAUNET_182:4 0.0492
6 TAUNET_182:4 TAUGATE_182:A 0.2707
*END

*D_NET TAUNET_303 0.7974
*CONN
*I inst_221:ZN O
*I TAUGATE_303:A I
*CAP
1 inst_221:ZN 0.2365
2 TAUNET_303:1 0.2080
3 TAUGATE_303:A 0.3529
*RES
2 inst_221:ZN TAUNET_303:1 0.4886
3 TAUNET_303:1 TAUGATE_303:A 0.3648
*END

*D_NET net_34 2.6368
*CONN
*I TAUGATE_281:Z O
*I inst_65:A1 I
*I inst_168:A I
*CAP
1 TAUGATE_281:Z 0.3187
2 net_34:1 0.0224
3 net_34:2 0.4026
4 net_34:3 0.2784
5 net_34:4 0.1803
6 net_34:5 0.0882
7 inst_168:A 0.2924
8 net_34:6 0.3922
9 net_34:7 0.3950
10 inst_65:A1 0.2666
*RES
2 TAUGATE_281:Z net_34:1 0.4780
3 net_34:1 net_34:2 0.3510
4 net_34:2 net_34:3 0.1182
5 net_34:3 net_34:4 0.2614
6 net_34:4 net_34:5 0.1530
7 net_34:5 inst_168:A 0.2582
8 net_34:1 net_34:6 0.4255
9 net_34:6 net_34:7 0.4671
10 net_34:7 inst_65:A1 0.2972
*END

*D_NET net_108 2.1171
*CONN
*I TAUGATE_304:Z O
*I inst_14:A3 I
*CAP
1 TAUGATE_304:Z 0.4880
2 net_108:1 0.3167
3 net_108:2 0.3376
4 net_108:3 0.1073
5 net_108:4 0.3579
6 net_108:5 0.1300
7 inst_14:A3 0.3795
*RES
2 TAUGATE_304:Z net_108:1 0.2362
3 net_108:1 net_108:2 0.1908
4 net_108:2 net_108:3 0.1996
5 net_108:3 net_108:4 0.3123
6 net_108:4 net_108:5 0.1251
7 net_108:5 inst_14:A3 0.0048
*END

*D_NET TAUNET_53 0.7154
*CONN
*I TAUGATE_228:Z O
*I TAUGATE_53:A I
*CAP
1 TAUGATE_228:Z 0.0195
2 TAUNET_53:1 0.3700
3 TAUGATE_53:A 0.3260
*RES
2 TAUGATE_228:Z TAUNET_53:1 0.3466
3 TAUNET_53:1 TAUGATE_53:A 0.4948
*END

*D_NET TAUNET_2 0.7773
*CONN
*I TAUGATE_261:Z O
*I TAUGATE_2:A I
*CAP
1 TAUGATE_261:Z 0.1954
2 TAUNET_2:1 0.4904
3 TAUGATE_2:A 0.0915
*RES
2 TAUGATE_261:Z TAUNET_2:1 0.4619
3 TAUNET_2:1 TAUGATE_2:A 0.1065
*END

*D_NET TAUNET_194 0.7741
*CONN
*I inst_151:ZN O
*I TAUGATE_194:A I
*CAP
1 inst_151:ZN 0.2576
2 TAUNET_194:1 0.2231
3 TAUGATE_194:A 0.2934
*RES
2 inst_151:ZN TAUNET_194:1 0.0661
3 TAUNET_194:1 TAUGATE_194:A 0.0281
*END

*D_NET net_63 2.8177
*CONN
*I TAUGATE_120:Z O
*I inst_227:A2 I
*I inst_114:A1 I
*I inst_38:A1 I
*CAP
1 TAUGATE_120:Z 0.2539
2 net_63:1 0.1980
3 inst_227:A2 0.3226
4 net_63:2 0.4631
5 net_63:3 0.0407
6 net_63:4 0.4130
7 net_63:5 0.3462
8 net_63:6 0.0714
9 inst_114:A1 0.2110
10 net_63:7 0.4333
11 inst_38:A1 0.0645
*RES
2 TAUGATE_120:Z net_63:1 0.1282
3 net_63:1 inst_227:A2 0.2766
4 net_63:1 net_63:2 0.2588
5 net_63:2 net_63:3 0.0339
6 net_63:3 net_63:4 0.0519
7 net_63:4 net_63:5 0.4874
8 net_63:5 net_63:6 0.0374
9 net_63:6 inst_114:A1 0.2489
10 net_63:3 net_63:7 0.3416
11 net_63:7 inst_38:A1 0.4099
*END

*D_NET TAUNET_233 0.3691
*CONN
*I TAUGATE_27:Z O
*I TAUGATE_233:A I
*CAP
1 TAUGATE_27:Z 0.0325
2 TAUNET_233:1 0.1850
3 TAUGATE_233:A 0.1516
*RES
2 TAUGATE_27:Z TAUNET_233:1 0.2746
3 TAUNET_233:1 TAUGATE_233:A 0.4228
*END

*D_NET TAUNET_4 1.4969
*CONN
*I TAUGATE_277:Z O
*I TAUGATE_4:A I
*CAP
1 TAUGATE_277:Z 0.3754
2 TAUNET_4:1 0.0068
3 TAUNET_4:2 0.2001
4 TAUNET_4:3 0.4220
5 TAUGATE_4:A 0.4926
*RES
2 TAUGATE_277:Z TAUNET_4:1 0.0580
3 TAUNET_4:1 TAUNET_4:2 0.3810
4 TAUNET_4:2 TAUNET_4:3 0.2195
5 TAUNET_4:3 TAUGATE_4:A 0.2042
*END

*D_NET TAUNET_283 1.5343
*CONN
*I inst_82:ZN O
*I TAUGATE_283:A I
*CAP
1 inst_82:ZN 0.2656
2 TAUNET_283:1 0.1336
3 TAUNET_283:2 0.4042
4 TAUNET_283:3 0.0451
5 TAUNET_283:4 0.2391
6 TAUNET_283:5 0.0321
7 TAUGATE_283:A 0.4146
*RES
2 inst_82:ZN TAUNET_283:1 0.0857
3 TAUNET_283:1 TAUNET_283:2 0.2654
4 TAUNET_283:2 TAUNET_283:3 0.2245
5 TAUNET_283:3 TAUNET_283:4 0.4797
6 TAUNET_283:4 TAUNET_283:5 0.0551
7 TAUNET_283:5 TAUGATE_283:A 0.1877
*END

*D_NET net_189 2.8447
*CONN
*I TAUGATE_337:Z O
*I inst_82:A2 I
*I inst_3:A2 I
*I inst_132:A I
*CAP
1 TAUGATE_337:Z 0.4235
2 net_189:1 0.2143
3 net_189:2 0.0701
4 inst_82:A2 0.2421
5 net_189:3 0.4838
6 net_189:4 0.0722
7 net_189:5 0.3539
8 inst_3:A2 0.3446
9 net_189:6 0.0224
10 net_189:7 0.3933
11 inst_132:A 0.2244
*RES
2 TAUGATE_337:Z net_189:1 0.4634
3 net_189:1 net_189:2 0.2497
4 net_189:2 inst_82:A2 0.2766
5 net_189:2 net_189:3 0.0192
6 net_189:3 net_189:4 0.1341
7 net_189:4 net_189:5 0.4054
8 net_189:5 inst_3:A2 0.3681
9 net_189:2 net_189:6 0.4154
10 net_189:6 net_189:7 0.1374
11 net_189:7 inst_132:A 0.1713
*END

*D_NET TAUNET_155 1.8689
*CONN
*I TAUGATE_35:Z O
*I TAUGATE_155:A I
*CAP
1 TAUGATE_35:Z 0.3119
2 TAUNET_155:1 0.3583
3 TAUNET_155:2 0.0251
4 TAUNET_155:3 0.0071