*SPEF "IEEE 1481-1998"
*DESIGN "changes"
*DATE "Tue Dec 02 20:48:19 2014"
*VENDOR "TAU 2015 Contest"
*PROGRAM "Benchmark Parasitic Generator"
*VERSION "0.0"
*DESIGN_FLOW "NETLIST_TYPE_VERILOG"
*DIVIDER /
*DELIMITER :
*BUS_DELIMITER [ ]
*T_UNIT 1 PS
*C_UNIT 1 FF
*R_UNIT 1 KOHM
*L_UNIT 1 UH

*D_NET net_166 1.7439
*CONN
*I inst_111:ZN O
*I inst_212:D I
*CAP
1 inst_111:ZN 0.2611
2 net_166:1 0.4098
3 net_166:2 0.5009
4 net_166:3 0.2843
5 inst_212:D 0.2878
*RES
2 inst_111:ZN net_166:1 0.1659
3 net_166:1 net_166:2 0.2742
4 net_166:2 net_166:3 0.3494
5 net_166:3 inst_212:D 0.1485
*END

*D_NET net_107 1.3760
*CONN
*I inst_55:ZN O
*I inst_72:A1 I
*CAP
1 inst_55:ZN 0.2110
2 net_107:1 0.3070
3 net_107:2 0.3583
4 net_107:3 0.1395
5 net_107:4 0.0646
6 net_107:5 0.0794
7 inst_72:A1 0.2161
*RES
2 inst_55:ZN net_107:1 0.1614
3 net_107:1 net_107:2 0.3312
4 net_107:2 net_107:3 0.3755
5 net_107:3 net_107:4 0.4644
6 net_107:4 net_107:5 0.4559
7 net_107:5 inst_72:A1 0.4050
*END

*D_NET net_47 0.4849
*CONN
*I inst_114:ZN O
*I inst_220:A3 I
*CAP
1 inst_114:ZN 0.1670
2 net_47:1 0.2440
3 net_47:2 0.0332
4 inst_220:A3 0.0406
*RES
2 inst_114:ZN net_47:1 0.2732
3 net_47:1 net_47:2 0.0073
4 net_47:2 inst_220:A3 0.1308
*END

*D_NET net_179 1.8161
*CONN
*I inst_231:ZN O
*I inst_64:A4 I
*CAP
1 inst_231:ZN 0.2909
2 net_179:1 0.0740
3 net_179:2 0.4871
4 net_179:3 0.4951
5 net_179:4 0.4125
6 inst_64:A4 0.0565
*RES
2 inst_231:ZN net_179:1 0.1285
3 net_179:1 net_179:2 0.0292
4 net_179:2 net_179:3 0.2926
5 net_179:3 net_179:4 0.4507
6 net_179:4 inst_64:A4 0.3356
*END

*D_NET net_176 1.9602
*CONN
*I inst_43:ZN O
*I inst_71:A3 I
*CAP
1 inst_43:ZN 0.3845
2 net_176:1 0.3056
3 net_176:2 0.3464
4 net_176:3 0.0305
5 net_176:4 0.2383
6 net_176:5 0.4020
7 inst_71:A3 0.2529
*RES
2 inst_43:ZN net_176:1 0.2665
3 net_176:1 net_176:2 0.4354
4 net_176:2 net_176:3 0.1977
5 net_176:3 net_176:4 0.0788
6 net_176:4 net_176:5 0.3276
7 net_176:5 inst_71:A3 0.3833
*END

*D_NET net_159 0.8670
*CONN
*I inst_19:ZN O
*I inst_216:D I
*CAP
1 inst_19:ZN 0.0716
2 net_159:1 0.1922
3 net_159:2 0.2805
4 net_159:3 0.1322
5 inst_216:D 0.1905
*RES
2 inst_19:ZN net_159:1 0.4017
3 net_159:1 net_159:2 0.4680
4 net_159:2 net_159:3 0.2976
5 net_159:3 inst_216:D 0.2331
*END

*D_NET net_137 2.1383
*CONN
*I inst_69:ZN O
*I inst_76:A1 I
*I inst_88:A1 I
*CAP
1 inst_69:ZN 0.3943
2 net_137:1 0.1955
3 net_137:2 0.1868
4 net_137:3 0.4889
5 inst_88:A1 0.0703
6 net_137:4 0.3990
7 inst_76:A1 0.4035
*RES
2 inst_69:ZN net_137:1 0.3298
3 net_137:1 net_137:2 0.4131
4 net_137:2 net_137:3 0.3310
5 net_137:3 inst_88:A1 0.2621
6 net_137:1 net_137:4 0.0219
7 net_137:4 inst_76:A1 0.0830
*END

*D_NET net_54 3.2416
*CONN
*I inst_3:ZN O
*I inst_32:A2 I
*I inst_226:A2 I
*CAP
1 inst_3:ZN 0.1250
2 net_54:1 0.4976
3 net_54:2 0.3591
4 net_54:3 0.2780
5 net_54:4 0.2022
6 inst_226:A2 0.1593
7 net_54:5 0.0632
8 net_54:6 0.2503
9 net_54:7 0.4700
10 net_54:8 0.3789
11 net_54:9 0.3545
12 inst_32:A2 0.1033
*RES
2 inst_3:ZN net_54:1 0.4382
3 net_54:1 net_54:2 0.3498
4 net_54:2 net_54:3 0.4055
5 net_54:3 net_54:4 0.4519
6 net_54:4 inst_226:A2 0.4658
7 net_54:4 net_54:5 0.4316
8 net_54:5 net_54:6 0.1782
9 net_54:6 net_54:7 0.4734
10 net_54:7 net_54:8 0.0376
11 net_54:8 net_54:9 0.0972
12 net_54:9 inst_32:A2 0.3594
*END

*D_NET net_105 1.4515
*CONN
*I inst_52:ZN O
*I inst_15:A3 I
*CAP
1 inst_52:ZN 0.3248
2 net_105:1 0.1267
3 net_105:2 0.3840
4 net_105:3 0.2434
5 inst_15:A3 0.3726
*RES
2 inst_52:ZN net_105:1 0.2980
3 net_105:1 net_105:2 0.2454
4 net_105:2 net_105:3 0.4670
5 net_105:3 inst_15:A3 0.1921
*END

*D_NET net_62 0.9538
*CONN
*I inst_35:ZN O
*I inst_43:A1 I
*CAP
1 inst_35:ZN 0.4443
2 net_62:1 0.3022
3 net_62:2 0.1405
4 inst_43:A1 0.0668
*RES
2 inst_35:ZN net_62:1 0.3699
3 net_62:1 net_62:2 0.4131
4 net_62:2 inst_43:A1 0.4004
*END

*D_NET net_129 0.9952
*CONN
*I inst_105:ZN O
*I inst_109:A2 I
*CAP
1 inst_105:ZN 0.1341
2 net_129:1 0.0282
3 net_129:2 0.3089
4 net_129:3 0.0253
5 net_129:4 0.3105
6 inst_109:A2 0.1881
*RES
2 inst_105:ZN net_129:1 0.2034
3 net_129:1 net_129:2 0.1592
4 net_129:2 net_129:3 0.3147
5 net_129:3 net_129:4 0.2761
6 net_129:4 inst_109:A2 0.3643
*END

*D_NET net_217 9.9197
*CONN
*I inst_86:ZN O
*I inst_58:A2 I
*I inst_73:A1 I
*I inst_89:A1 I
*I inst_17:A1 I
*I inst_108:A2 I
*I inst_87:A2 I
*I inst_72:A3 I
*I inst_115:A2 I
*I inst_74:A3 I
*CAP
1 inst_86:ZN 0.0666
2 net_217:1 0.3580
3 net_217:2 0.3774
4 net_217:3 0.2731
5 net_217:4 0.1525
6 inst_108:A2 0.0518
7 net_217:5 0.2239
8 net_217:6 0.0917
9 inst_73:A1 0.4230
10 net_217:7 0.3484
11 net_217:8 0.0801
12 net_217:9 0.1392
13 net_217:10 0.1891
14 net_217:11 0.0464
15 inst_89:A1 0.0364
16 net_217:12 0.3388
17 net_217:13 0.4657
18 net_217:14 0.3595
19 net_217:15 0.2471
20 net_217:16 0.0832
21 inst_17:A1 0.0580
22 net_217:17 0.4950
23 net_217:18 0.0413
24 net_217:19 0.4651
25 net_217:20 0.4065
26 inst_58:A2 0.3164
27 net_217:21 0.2195
28 net_217:22 0.1533
29 net_217:23 0.4091
30 inst_87:A2 0.2613
31 net_217:24 0.1210
32 net_217:25 0.1733
33 net_217:26 0.1014
34 net_217:27 0.0283
35 net_217:28 0.2763
36 inst_72:A3 0.2945
37 net_217:29 0.2821
38 net_217:30 0.3900
39 net_217:31 0.0557
40 net_217:32 0.1253
41 inst_115:A2 0.2716
42 net_217:33 0.2135
43 net_217:34 0.0419
44 net_217:35 0.2773
45 inst_74:A3 0.0903
*RES
2 inst_86:ZN net_217:1 0.2548
3 net_217:1 net_217:2 0.2154
4 net_217:2 net_217:3 0.4921
5 net_217:3 net_217:4 0.1648
6 net_217:4 inst_108:A2 0.1855
7 net_217:4 net_217:5 0.1494
8 net_217:5 net_217:6 0.3290
9 net_217:6 inst_73:A1 0.1620
10 net_217:3 net_217:7 0.0279
11 net_217:7 net_217:8 0.4104
12 net_217:8 net_217:9 0.0649
13 net_217:9 net_217:10 0.0510
14 net_217:10 net_217:11 0.1600
15 net_217:11 inst_89:A1 0.1748
16 net_217:3 net_217:12 0.3736
17 net_217:12 net_217:13 0.0395
18 net_217:13 net_217:14 0.3644
19 net_217:14 net_217:15 0.0829
20 net_217:15 net_217:16 0.1977
21 net_217:16 inst_17:A1 0.4694
22 net_217:13 net_217:17 0.3513
23 net_217:17 net_217:18 0.1165
24 net_217:18 net_217:19 0.0986
25 net_217:19 net_217:20 0.2243
26 net_217:20 inst_58:A2 0.1286
27 net_217:18 net_217:21 0.3587
28 net_217:21 net_217:22 0.1869
29 net_217:22 net_217:23 0.4974
30 net_217:23 inst_87:A2 0.3047
31 net_217:6 net_217:24 0.3177
32 net_217:24 net_217:25 0.2101
33 net_217:25 net_217:26 0.3390
34 net_217:26 net_217:27 0.2046
35 net_217:27 net_217:28 0.3404
36 net_217:28 inst_72:A3 0.1317
37 net_217:5 net_217:29 0.3735
38 net_217:29 net_217:30 0.1079
39 net_217:30 net_217:31 0.3323
40 net_217:31 net_217:32 0.2907
41 net_217:32 inst_115:A2 0.0362
42 net_217:27 net_217:33 0.0485
43 net_217:33 net_217:34 0.4602
44 net_217:34 net_217:35 0.4262
45 net_217:35 inst_74:A3 0.2009
*END

*D_NET net_98 1.7519
*CONN
*I inst_50:ZN O
*I inst_19:A2 I
*CAP
1 inst_50:ZN 0.3090
2 net_98:1 0.4228
3 net_98:2 0.2443
4 net_98:3 0.2458
5 net_98:4 0.3734
6 inst_19:A2 0.1567
*RES
2 inst_50:ZN net_98:1 0.1247
3 net_98:1 net_98:2 0.2439
4 net_98:2 net_98:3 0.2588
5 net_98:3 net_98:4 0.4474
6 net_98:4 inst_19:A2 0.3528
*END

*D_NET net_119 1.1906
*CONN
*I inst_103:ZN O
*I inst_105:A2 I
*CAP
1 inst_103:ZN 0.4436
2 net_119:1 0.3275
3 net_119:2 0.0169
4 inst_105:A2 0.4026
*RES
2 inst_103:ZN net_119:1 0.4684
3 net_119:1 net_119:2 0.2490
4 net_119:2 inst_105:A2 0.0579
*END

*D_NET net_117 2.1415
*CONN
*I inst_101:ZN O
*I inst_106:A2 I
*CAP
1 inst_101:ZN 0.2861
2 net_117:1 0.3875
3 net_117:2 0.4796
4 net_117:3 0.3740
5 net_117:4 0.1554
6 net_117:5 0.0209
7 inst_106:A2 0.4380
*RES
2 inst_101:ZN net_117:1 0.4130
3 net_117:1 net_117:2 0.4990
4 net_117:2 net_117:3 0.2134
5 net_117:3 net_117:4 0.1115
6 net_117:4 net_117:5 0.4947
7 net_117:5 inst_106:A2 0.3666
*END

*D_NET net_74 3.1964
*CONN
*I inst_22:ZN O
*I inst_231:A2 I
*I inst_229:A2 I
*I inst_66:A1 I
*CAP
1 inst_22:ZN 0.4464
2 net_74:1 0.2969
3 net_74:2 0.3091
4 net_74:3 0.5006
5 inst_229:A2 0.2264
6 net_74:4 0.4002
7 net_74:5 0.3652
8 net_74:6 0.1857
9 inst_231:A2 0.0562
10 net_74:7 0.1130
11 net_74:8 0.1026
12 inst_66:A1 0.1939
*RES
2 inst_22:ZN net_74:1 0.3973
3 net_74:1 net_74:2 0.2044
4 net_74:2 net_74:3 0.1531
5 net_74:3 inst_229:A2 0.3886
6 net_74:2 net_74:4 0.0882
7 net_74:4 net_74:5 0.4386
8 net_74:5 net_74:6 0.2715
9 net_74:6 inst_231:A2 0.0199
10 net_74:6 net_74:7 0.1095
11 net_74:7 net_74:8 0.0212
12 net_74:8 inst_66:A1 0.1417
*END

*D_NET net_151 1.5062
*CONN
*I inst_88:ZN O
*I inst_77:A1 I
*CAP
1 inst_88:ZN 0.4826
2 net_151:1 0.4033
3 net_151:2 0.3663
4 inst_77:A1 0.2540
*RES
2 inst_88:ZN net_151:1 0.0526
3 net_151:1 net_151:2 0.2388
4 net_151:2 inst_77:A1 0.1787
*END

*D_NET net_53 0.4944
*CONN
*I inst_95:ZN O
*I inst_70:A1 I
*CAP
1 inst_95:ZN 0.0603
2 net_53:1 0.3102
3 inst_70:A1 0.1239
*RES
2 inst_95:ZN net_53:1 0.2473
3 net_53:1 inst_70:A1 0.0055
*END

*D_NET net_93 2.5788
*CONN
*I inst_226:ZN O
*I inst_61:A2 I
*I inst_48:A1 I
*CAP
1 inst_226:ZN 0.2412
2 net_93:1 0.4441
3 net_93:2 0.4218
4 net_93:3 0.0848
5 net_93:4 0.0266
6 inst_48:A1 0.0274
7 net_93:5 0.4317
8 net_93:6 0.1801
9 net_93:7 0.2826
10 net_93:8 0.3420
11 inst_61:A2 0.0965
*RES
2 inst_226:ZN net_93:1 0.4218
3 net_93:1 net_93:2 0.2061
4 net_93:2 net_93:3 0.2110
5 net_93:3 net_93:4 0.4583
6 net_93:4 inst_48:A1 0.3985
7 net_93:3 net_93:5 0.2555
8 net_93:5 net_93:6 0.1304
9 net_93:6 net_93:7 0.3675
10 net_93:7 net_93:8 0.4634
11 net_93:8 inst_61:A2 0.2869
*END

*D_NET net_210 0.5511
*CONN
*I inst_54:ZN O
*I inst_73:A3 I
*CAP
1 inst_54:ZN 0.1182
2 net_210:1 0.0608
3 inst_73:A3 0.3721
*RES
2 inst_54:ZN net_210:1 0.4648
3 net_210:1 inst_73:A3 0.2376
*END

*D_NET net_168 0.8353
*CONN
*I inst_113:ZN O
*I inst_214:D I
*CAP
1 inst_113:ZN 0.3081
2 net_168:1 0.0264
3 net_168:2 0.2502
4 inst_214:D 0.2506
*RES
2 inst_113:ZN net_168:1 0.4486
3 net_168:1 net_168:2 0.0641
4 net_168:2 inst_214:D 0.0138
*END

*D_NET net_135 0.7959
*CONN
*I inst_115:ZN O
*I inst_18:A1 I
*CAP
1 inst_115:ZN 0.0204
2 net_135:1 0.1001
3 net_135:2 0.2747
4 net_135:3 0.1704
5 inst_18:A1 0.2303
*RES
2 inst_115:ZN net_135:1 0.0121
3 net_135:1 net_135:2 0.0620
4 net_135:2 net_135:3 0.0267
5 net_135:3 inst_18:A1 0.1278
*END

*D_NET net_130 1.5058
*CONN
*I inst_106:ZN O
*I inst_107:A1 I
*CAP
1 inst_106:ZN 0.3621
2 net_130:1 0.3490
3 net_130:2 0.4751
4 inst_107:A1 0.3195
*RES
2 inst_106:ZN net_130:1 0.4748
3 net_130:1 net_130:2 0.2505
4 net_130:2 inst_107:A1 0.2036
*END

*D_NET net_147 1.2849
*CONN
*I inst_9:ZN O
*I inst_208:D I
*CAP
1 inst_9:ZN 0.0185
2 net_147:1 0.2437
3 net_147:2 0.3641
4 net_147:3 0.1411
5 net_147:4 0.2452
6 inst_208:D 0.2723
*RES
2 inst_9:ZN net_147:1 0.2079
3 net_147:1 net_147:2 0.2449
4 net_147:2 net_147:3 0.0406
5 net_147:3 net_147:4 0.0917
6 net_147:4 inst_208:D 0.0078
*END

*D_NET net_127 0.3723
*CONN
*I inst_14:ZN O
*I inst_206:D I
*CAP
1 inst_14:ZN 0.0264
2 net_127:1 0.1906
3 inst_206:D 0.1553
*RES
2 inst_14:ZN net_127:1 0.0937
3 net_127:1 inst_206:D 0.2944
*END

*D_NET G147 2.6373
*CONN
*I inst_209:QN O
*P G147 O
*I inst_42:A2 I
*CAP
1 inst_209:QN 0.0209
2 G147:1 0.1067
3 G147:2 0.4881
4 inst_42:A2 0.3672
5 G147:3 0.2979
6 G147:4 0.3428
7 G147:5 0.2325
8 G147:6 0.2733
9 G147:7 0.1266
10 G147 0.3814
*RES
2 inst_209:QN G147:1 0.4629
3 G147:1 G147:2 0.1157
4 G147:2 inst_42:A2 0.1901
5 G147:1 G147:3 0.1363
6 G147:3 G147:4 0.3277
7 G147:4 G147:5 0.3144
8 G147:5 G147:6 0.4503
9 G147:6 G147:7 0.3676
10 G147:7 G147 0.1603
*END

*D_NET net_76 1.5235
*CONN
*I inst_41:ZN O
*I inst_200:D I
*CAP
1 inst_41:ZN 0.1159
2 net_76:1 0.1465
3 net_76:2 0.1463
4 net_76:3 0.4621
5 net_76:4 0.4065
6 net_76:5 0.0227
7 inst_200:D 0.2236
*RES
2 inst_41:ZN net_76:1 0.4114
3 net_76:1 net_76:2 0.0715
4 net_76:2 net_76:3 0.1546
5 net_76:3 net_76:4 0.1861
6 net_76:4 net_76:5 0.4367
7 net_76:5 inst_200:D 0.3452
*END

*D_NET G198 1.4369
*CONN
*I inst_219:QN O
*P G198 O
*I inst_61:A1 I
*CAP
1 inst_219:QN 0.1217
2 G198:1 0.1222
3 G198 0.0613
4 G198:2 0.2603
5 G198:3 0.2874
6 G198:4 0.3072
7 inst_61:A1 0.2768
*RES
2 inst_219:QN G198:1 0.1692
3 G198:1 G198 0.4407
4 G198:1 G198:2 0.1679
5 G198:2 G198:3 0.2053
6 G198:3 G198:4 0.2140
7 G198:4 inst_61:A1 0.3306
*END

*D_NET net_187 10.1903
*CONN
*I inst_213:QN O
*I inst_42:A1 I
*I inst_49:A2 I
*I inst_23:A2 I
*I inst_50:A1 I
*I inst_75:A3 I
*I inst_116:S I
*I inst_73:A2 I
*I inst_99:A1 I
*I inst_82:A2 I
*I inst_3:A2 I
*CAP
1 inst_213:QN 0.2580
2 net_187:1 0.4796
3 net_187:2 0.3806
4 net_187:3 0.4946
5 inst_50:A1 0.4608
6 net_187:4 0.4103
7 net_187:5 0.0845
8 inst_49:A2 0.1888
9 net_187:6 0.2069
10 inst_23:A2 0.0491
11 net_187:7 0.1831
12 net_187:8 0.4110
13 net_187:9 0.0191
14 inst_42:A1 0.3538
15 net_187:10 0.5010
16 net_187:11 0.3538
17 net_187:12 0.4649
18 net_187:13 0.0482
19 net_187:14 0.1062
20 inst_75:A3 0.2963
21 net_187:15 0.0470
22 net_187:16 0.0745
23 net_187:17 0.1738
24 inst_116:S 0.4336
25 net_187:18 0.4033
26 net_187:19 0.2734
27 net_187:20 0.3461
28 net_187:21 0.3729
29 net_187:22 0.0418
30 inst_73:A2 0.3671
31 net_187:23 0.0489
32 net_187:24 0.0861
33 inst_99:A1 0.1477
34 net_187:25 0.1100
35 net_187:26 0.2818
36 net_187:27 0.3290
37 inst_82:A2 0.1592
38 net_187:28 0.0096
39 net_187:29 0.4963
40 inst_3:A2 0.2377
*RES
2 inst_213:QN net_187:1 0.4692
3 net_187:1 net_187:2 0.4766
4 net_187:2 net_187:3 0.0589
5 net_187:3 inst_50:A1 0.0962
6 net_187:2 net_187:4 0.1436
7 net_187:4 net_187:5 0.1762
8 net_187:5 inst_49:A2 0.4748
9 net_187:1 net_187:6 0.4137
10 net_187:6 inst_23:A2 0.3046
11 net_187:4 net_187:7 0.4300
12 net_187:7 net_187:8 0.3629
13 net_187:8 net_187:9 0.0787
14 net_187:9 inst_42:A1 0.2007
15 net_187:6 net_187:10 0.4911
16 net_187:10 net_187:11 0.2002
17 net_187:11 net_187:12 0.2573
18 net_187:12 net_187:13 0.3761
19 net_187:13 net_187:14 0.0616
20 net_187:14 inst_75:A3 0.4298
21 net_187:8 net_187:15 0.4556
22 net_187:15 net_187:16 0.1284
23 net_187:16 net_187:17 0.0036
24 net_187:17 inst_116:S 0.1731
25 net_187:10 net_187:18 0.3815
26 net_187:18 net_187:19 0.1458
27 net_187:19 net_187:20 0.4915
28 net_187:20 net_187:21 0.0683
29 net_187:21 net_187:22 0.2135
30 net_187:22 inst_73:A2 0.4484
31 net_187:6 net_187:23 0.4806
32 net_187:23 net_187:24 0.3473
33 net_187:24 inst_99:A1 0.1114
34 net_187:1 net_187:25 0.4236
35 net_187:25 net_187:26 0.3328
36 net_187:26 net_187:27 0.1906
37 net_187:27 inst_82:A2 0.5003
38 net_187:17 net_187:28 0.2571
39 net_187:28 net_187:29 0.3610
40 net_187:29 inst_3:A2 0.0042
*END

*D_NET net_111 2.1902
*CONN
*I inst_84:ZN O
*I inst_70:A3 I
*I inst_13:A1 I
*CAP
1 inst_84:ZN 0.3841
2 net_111:1 0.2352
3 net_111:2 0.3112
4 net_111:3 0.1345
5 net_111:4 0.4134
6 inst_13:A1 0.0741
7 net_111:5 0.2343
8 net_111:6 0.1106
9 net_111:7 0.0283
10 inst_70:A3 0.2644
*RES
2 inst_84:ZN net_111:1 0.4290
3 net_111:1 net_111:2 0.4891
4 net_111:2 net_111:3 0.0621
5 net_111:3 net_111:4 0.2122
6 net_111:4 inst_13:A1 0.2034
7 net_111:1 net_111:5 0.3395
8 net_111:5 net_111:6 0.4160
9 net_111:6 net_111:7 0.1311
10 net_111:7 inst_70:A3 0.1702
*END

*D_NET net_90 0.8144
*CONN
*I inst_11:ZN O
*I inst_15:A2 I
*CAP
1 inst_11:ZN 0.0383
2 net_90:1 0.2177
3 net_90:2 0.0520
4 net_90:3 0.1787
5 inst_15:A2 0.3277
*RES
2 inst_11:ZN net_90:1 0.2308
3 net_90:1 net_90:2 0.1825
4 net_90:2 net_90:3 0.4154
5 net_90:3 inst_15:A2 0.4205
*END

*D_NET net_100 1.8370
*CONN
*I inst_83:ZN O
*I inst_27:A1 I
*I inst_26:A1 I
*CAP
1 inst_83:ZN 0.3303
2 net_100:1 0.3450
3 inst_27:A1 0.2552
4 net_100:2 0.3448
5 net_100:3 0.2539
6 net_100:4 0.0169
7 inst_26:A1 0.2910
*RES
2 inst_83:ZN net_100:1 0.2397
3 net_100:1 inst_27:A1 0.3943
4 net_100:1 net_100:2 0.3418
5 net_100:2 net_100:3 0.0277
6 net_100:3 net_100:4 0.2232
7 net_100:4 inst_26:A1 0.0700
*END

*D_NET net_69 0.5906
*CONN
*I inst_36:ZN O
*I inst_8:A2 I
*CAP
1 inst_36:ZN 0.4916
2 net_69:1 0.0722
3 inst_8:A2 0.0268
*RES
2 inst_36:ZN net_69:1 0.0274
3 net_69:1 inst_8:A2 0.0955
*END

*D_NET net_85 0.7110
*CONN
*I inst_46:ZN O
*I inst_20:A3 I
*CAP
1 inst_46:ZN 0.0730
2 net_85:1 0.1500
3 net_85:2 0.2720
4 net_85:3 0.0605
5 inst_20:A3 0.1555
*RES
2 inst_46:ZN net_85:1 0.4347
3 net_85:1 net_85:2 0.2976
4 net_85:2 net_85:3 0.3531
5 net_85:3 inst_20:A3 0.0316
*END

*D_NET net_124 1.6604
*CONN
*I inst_102:ZN O
*I inst_221:A1 I
*I inst_104:A2 I
*CAP
1 inst_102:ZN 0.0755
2 net_124:1 0.3515
3 net_124:2 0.2983
4 net_124:3 0.4269
5 net_124:4 0.0493
6 inst_221:A1 0.0341
7 net_124:5 0.3051
8 inst_104:A2 0.1197
*RES
2 inst_102:ZN net_124:1 0.3020
3 net_124:1 net_124:2 0.3389
4 net_124:2 net_124:3 0.4000
5 net_124:3 net_124:4 0.0188
6 net_124:4 inst_221:A1 0.4709
7 net_124:3 net_124:5 0.2956
8 net_124:5 inst_104:A2 0.2210
*END

*D_NET net_161 1.0352
*CONN
*I inst_21:ZN O
*I inst_219:D I
*CAP
1 inst_21:ZN 0.2798
2 net_161:1 0.0137
3 net_161:2 0.2108
4 net_161:3 0.3101
5 net_161:4 0.0161
6 inst_219:D 0.2047
*RES
2 inst_21:ZN net_161:1 0.3729
3 net_161:1 net_161:2 0.0610
4 net_161:2 net_161:3 0.4010
5 net_161:3 net_161:4 0.2910
6 net_161:4 inst_219:D 0.3768
*END

*D_NET net_141 1.4722
*CONN
*I inst_73:ZN O
*I inst_110:A2 I
*CAP
1 inst_73:ZN 0.1250
2 net_141:1 0.3715
3 net_141:2 0.3144
4 net_141:3 0.3618
5 net_141:4 0.0820
6 inst_110:A2 0.2174
*RES
2 inst_73:ZN net_141:1 0.3638
3 net_141:1 net_141:2 0.4097
4 net_141:2 net_141:3 0.2418
5 net_141:3 net_141:4 0.4080
6 net_141:4 inst_110:A2 0.3118
*END

*D_NET net_160 1.5302
*CONN
*I inst_20:ZN O
*I inst_218:D I
*CAP
1 inst_20:ZN 0.3134
2 net_160:1 0.1396
3 net_160:2 0.0910
4 net_160:3 0.1278
5 net_160:4 0.3093
6 net_160:5 0.3342
7 inst_218:D 0.2150
*RES
2 inst_20:ZN net_160:1 0.0109
3 net_160:1 net_160:2 0.1830
4 net_160:2 net_160:3 0.2298
5 net_160:3 net_160:4 0.0712
6 net_160:4 net_160:5 0.0044
7 net_160:5 inst_218:D 0.1986
*END

*D_NET net_221 7.5291
*CONN
*I inst_211:QN O
*I inst_4:A2 I
*I inst_105:A1 I
*I inst_33:A2 I
*I inst_116:A I
*I inst_23:A1 I
*I inst_69:A2 I
*I inst_224:A1 I
*I inst_22:A2 I
*CAP
1 inst_211:QN 0.0521
2 net_221:1 0.0043
3 inst_4:A2 0.2737
4 net_221:2 0.2784
5 net_221:3 0.2008
6 inst_105:A1 0.3776
7 net_221:4 0.3567
8 net_221:5 0.3242
9 net_221:6 0.2336
10 net_221:7 0.3863
11 inst_33:A2 0.2365
12 net_221:8 0.3015
13 net_221:9 0.1830
14 net_221:10 0.3035
15 net_221:11 0.4053
16 inst_116:A 0.0863
17 net_221:12 0.0512
18 net_221:13 0.1351
19 net_221:14 0.0984
20 net_221:15 0.0368
21 inst_23:A1 0.4376
22 net_221:16 0.3766
23 net_221:17 0.0185
24 net_221:18 0.3877
25 net_221:19 0.1588
26 inst_69:A2 0.3738
27 net_221:20 0.1158
28 net_221:21 0.1153
29 net_221:22 0.3810
30 net_221:23 0.1100
31 net_221:24 0.1662
32 inst_224:A1 0.3178
33 net_221:25 0.2326
34 inst_22:A2 0.0121
*RES
2 inst_211:QN net_221:1 0.4724
3 net_221:1 inst_4:A2 0.2677
4 net_221:1 net_221:2 0.2937
5 net_221:2 net_221:3 0.0093
6 net_221:3 inst_105:A1 0.2822
7 net_221:1 net_221:4 0.1037
8 net_221:4 net_221:5 0.3572
9 net_221:5 net_221:6 0.2211
10 net_221:6 net_221:7 0.2185
11 net_221:7 inst_33:A2 0.2266
12 net_221:7 net_221:8 0.2362
13 net_221:8 net_221:9 0.1365
14 net_221:9 net_221:10 0.0277
15 net_221:10 net_221:11 0.4263
16 net_221:11 inst_116:A 0.2912
17 net_221:2 net_221:12 0.1423
18 net_221:12 net_221:13 0.1283
19 net_221:13 net_221:14 0.1146
20 net_221:14 net_221:15 0.3234
21 net_221:15 inst_23:A1 0.4610
22 net_221:8 net_221:16 0.4556
23 net_221:16 net_221:17 0.1835
24 net_221:17 net_221:18 0.0020
25 net_221:18 net_221:19 0.2614
26 net_221:19 inst_69:A2 0.3010
27 net_221:8 net_221:20 0.2541
28 net_221:20 net_221:21 0.2497
29 net_221:21 net_221:22 0.4625
30 net_221:22 net_221:23 0.2343
31 net_221:23 net_221:24 0.0981
32 net_221:24 inst_224:A1 0.3461
33 net_221:20 net_221:25 0.2674
34 net_221:25 inst_22:A2 0.2072
*END

*D_NET net_83 1.0250
*CONN
*I inst_97:ZN O
*I inst_220:A4 I
*CAP
1 inst_97:ZN 0.2455
2 net_83:1 0.0138
3 net_83:2 0.4527
4 inst_220:A4 0.3131
*RES
2 inst_97:ZN net_83:1 0.4392
3 net_83:1 net_83:2 0.4048
4 net_83:2 inst_220:A4 0.0368
*END

*D_NET net_115 1.7633
*CONN
*I inst_220:ZN O
*I inst_202:D I
*CAP
1 inst_220:ZN 0.2266
2 net_115:1 0.3736
3 net_115:2 0.3306
4 net_115:3 0.3042
5 net_115:4 0.1317
6 net_115:5 0.1481
7 inst_202:D 0.2485
*RES
2 inst_220:ZN net_115:1 0.2201
3 net_115:1 net_115:2 0.2966
4 net_115:2 net_115:3 0.3013
5 net_115:3 net_115:4 0.0758
6 net_115:4 net_115:5 0.0262
7 net_115:5 inst_202:D 0.3812
*END

*D_NET G148 1.8407
*CONN
*I inst_216:QN O
*P G148 O
*I inst_48:A2 I
*CAP
1 inst_216:QN 0.1550
2 G148:1 0.1418
3 G148 0.2138
4 G148:2 0.0320
5 G148:3 0.2786
6 G148:4 0.3378
7 G148:5 0.4364
8 inst_48:A2 0.2454
*RES
2 inst_216:QN G148:1 0.3805
3 G148:1 G148 0.2523
4 G148:1 G148:2 0.4527
5 G148:2 G148:3 0.2663
6 G148:3 G148:4 0.3641
7 G148:4 G148:5 0.1740
8 G148:5 inst_48:A2 0.2701
*END

*D_NET net_95 1.1676
*CONN
*I inst_48:ZN O
*I inst_7:A1 I
*CAP
1 inst_48:ZN 0.4105
2 net_95:1 0.3665
3 net_95:2 0.1341
4 net_95:3 0.0859
5 inst_7:A1 0.1706
*RES
2 inst_48:ZN net_95:1 0.3812
3 net_95:1 net_95:2 0.0751
4 net_95:2 net_95:3 0.1227
5 net_95:3 inst_7:A1 0.0294
*END

*D_NET net_173 2.1109
*CONN
*I inst_85:ZN O
*I inst_86:A1 I
*CAP
1 inst_85:ZN 0.3552
2 net_173:1 0.1840
3 net_173:2 0.4010
4 net_173:3 0.3573
5 net_173:4 0.4559
6 inst_86:A1 0.3575
*RES
2 inst_85:ZN net_173:1 0.1715
3 net_173:1 net_173:2 0.3050
4 net_173:2 net_173:3 0.3594
5 net_173:3 net_173:4 0.4902
6 net_173:4 inst_86:A1 0.4716
*END

*D_NET net_78 1.0019
*CONN
*I inst_30:ZN O
*I inst_62:A2 I
*I inst_43:A2 I
*CAP
1 inst_30:ZN 0.1762
2 net_78:1 0.1660
3 net_78:2 0.2177
4 inst_62:A2 0.2908
5 net_78:3 0.0053
6 inst_43:A2 0.1459
*RES
2 inst_30:ZN net_78:1 0.3318
3 net_78:1 net_78:2 0.3308
4 net_78:2 inst_62:A2 0.4080
5 net_78:1 net_78:3 0.0437
6 net_78:3 inst_43:A2 0.4598
*END

*D_NET net_164 1.9374
*CONN
*I inst_110:ZN O
*I inst_217:D I
*CAP
1 inst_110:ZN 0.2033
2 net_164:1 0.4574
3 net_164:2 0.4683
4 net_164:3 0.1543
5 net_164:4 0.4873
6 inst_217:D 0.1669
*RES
2 inst_110:ZN net_164:1 0.4800
3 net_164:1 net_164:2 0.4518
4 net_164:2 net_164:3 0.0570
5 net_164:3 net_164:4 0.4909
6 net_164:4 inst_217:D 0.0572
*END

*D_NET net_87 1.5455
*CONN
*I inst_232:ZN O
*I inst_56:A2 I
*CAP
1 inst_232:ZN 0.1013
2 net_87:1 0.4210
3 net_87:2 0.2594
4 net_87:3 0.3565
5 inst_56:A2 0.4074
*RES
2 inst_232:ZN net_87:1 0.4309
3 net_87:1 net_87:2 0.4474
4 net_87:2 net_87:3 0.2931
5 net_87:3 inst_56:A2 0.2848
*END

*D_NET net_155 1.9018
*CONN
*I inst_18:ZN O
*I inst_210:D I
*CAP
1 inst_18:ZN 0.3320
2 net_155:1 0.3663
3 net_155:2 0.1512
4 net_155:3 0.1368
5 net_155:4 0.4493
6 inst_210:D 0.4663
*RES
2 inst_18:ZN net_155:1 0.2866
3 net_155:1 net_155:2 0.1873
4 net_155:2 net_155:3 0.1599
5 net_155:3 net_155:4 0.3589
6 net_155:4 inst_210:D 0.4697
*END

*D_NET G2 0.9872
*CONN
*P G2 I
*I inst_0:A I
*CAP
1 G2 0.0401
2 G2:1 0.1883
3 G2:2 0.3075
4 G2:3 0.0604
5 inst_0:A 0.3908
*RES
2 G2 G2:1 0.2921
3 G2:1 G2:2 0.4162
4 G2:2 G2:3 0.1285
5 G2:3 inst_0:A 0.0491
*END

*D_NET net_35 2.2544
*CONN
*I inst_29:ZN O
*I inst_36:A1 I
*I inst_65:A1 I
*CAP
1 inst_29:ZN 0.2111
2 net_35:1 0.1515
3 net_35:2 0.0492
4 net_35:3 0.2707
5 net_35:4 0.0711
6 inst_65:A1 0.2365
7 net_35:5 0.0224
8 net_35:6 0.4026
9 net_35:7 0.2784
10 net_35:8 0.1803
11 net_35:9 0.0882
12 inst_36:A1 0.2924
*RES
2 inst_29:ZN net_35:1 0.0021
3 net_35:1 net_35:2 0.2080
4 net_35:2 net_35:3 0.3529
5 net_35:3 net_35:4 0.4886
6 net_35:4 inst_65:A1 0.3648
7 net_35:3 net_35:5 0.4780
8 net_35:5 net_35:6 0.3510
9 net_35:6 net_35:7 0.1182
10 net_35:7 net_35:8 0.2614
11 net_35:8 net_35:9 0.1530
12 net_35:9 inst_36:A1 0.2582
*END

*D_NET net_22 5.6943
*CONN
*I inst_202:QN O
*I inst_114:A2 I
*I inst_6:A2 I
*I inst_91:A2 I
*I inst_39:A2 I
*I inst_79:A1 I
*I inst_222:A2 I
*CAP
1 inst_202:QN 0.0762
2 net_22:1 0.3922
3 net_22:2 0.3950
4 inst_222:A2 0.2666
5 net_22:3 0.1073
6 net_22:4 0.3579
7 net_22:5 0.1300
8 net_22:6 0.3795
9 inst_6:A2 0.2362
10 net_22:7 0.0541
11 inst_91:A2 0.3700
12 net_22:8 0.4904
13 inst_39:A2 0.0915
14 net_22:9 0.0690
15 net_22:10 0.2231
16 net_22:11 0.2934
17 inst_79:A1 0.0661
18 net_22:12 0.1282
19 net_22:13 0.2766
20 net_22:14 0.4045
21 net_22:15 0.4267
22 inst_114:A2 0.4596
*RES
2 inst_202:QN net_22:1 0.4255
3 net_22:1 net_22:2 0.4671
4 net_22:2 inst_222:A2 0.2972
5 net_22:2 net_22:3 0.1908
6 net_22:3 net_22:4 0.1996
7 net_22:4 net_22:5 0.3123
8 net_22:5 net_22:6 0.1251
9 net_22:6 inst_6:A2 0.0048
10 net_22:4 net_22:7 0.3260
11 net_22:7 inst_91:A2 0.3466
12 net_22:3 net_22:8 0.4619
13 net_22:8 inst_39:A2 0.1065
14 net_22:4 net_22:9 0.0281
15 net_22:9 net_22:10 0.1011
16 net_22:10 net_22:11 0.2539
17 net_22:11 inst_79:A1 0.0765
18 net_22:5 net_22:12 0.3295
19 net_22:12 net_22:13 0.4724
20 net_22:13 net_22:14 0.4631
21 net_22:14 net_22:15 0.0407
22 net_22:15 inst_114:A2 0.4130
*END

*D_NET net_181 3.1250
*CONN
*I inst_26:ZN O
*I inst_103:A1 I
*I inst_69:A3 I
*I inst_63:A4 I
*CAP
1 inst_26:ZN 0.0714
2 net_181:1 0.2588
3 net_181:2 0.0339
4 net_181:3 0.0519
5 inst_63:A4 0.4874
6 net_181:4 0.1540
7 net_181:5 0.0325
8 net_181:6 0.0924
9 net_181:7 0.1850
10 net_181:8 0.1516
11 inst_69:A3 0.2746
12 net_181:9 0.0580
13 net_181:10 0.3810
14 net_181:11 0.2195
15 net_181:12 0.2042
16 net_181:13 0.2030
17 inst_103:A1 0.2656
*RES
2 inst_26:ZN net_181:1 0.0374
3 net_181:1 net_181:2 0.2489
4 net_181:2 net_181:3 0.2584
5 net_181:3 inst_63:A4 0.0346
6 net_181:3 net_181:4 0.4228
7 net_181:4 net_181:5 0.1417
8 net_181:5 net_181:6 0.3754
9 net_181:6 net_181:7 0.2016
10 net_181:7 net_181:8 0.0068
11 net_181:8 inst_69:A3 0.2001
12 net_181:8 net_181:9 0.4413
13 net_181:9 net_181:10 0.1336
14 net_181:10 net_181:11 0.4042
15 net_181:11 net_181:12 0.0451
16 net_181:12 net_181:13 0.2391
17 net_181:13 inst_103:A1 0.0321
*END

*D_NET net_39 1.0327
*CONN
*I inst_92:ZN O
*I inst_70:A2 I
*CAP
1 inst_92:ZN 0.0857
2 net_39:1 0.2245
3 net_39:2 0.4797
4 net_39:3 0.0551
5 inst_70:A2 0.1877
*RES
2 inst_92:ZN net_39:1 0.0973
3 net_39:1 net_39:2 0.4235
4 net_39:2 net_39:3 0.1903
5 net_39:3 inst_70:A2 0.2143
*END

*D_NET net_144 1.8683
*CONN
*I inst_64:ZN O
*I inst_111:A2 I
*CAP
1 inst_64:ZN 0.2421
2 net_144:1 0.2497
3 net_144:2 0.2766
4 net_144:3 0.3086
5 net_144:4 0.2353
6 net_144:5 0.4838
7 inst_111:A2 0.0722
*RES
2 inst_64:ZN net_144:1 0.3539
3 net_144:1 net_144:2 0.3446
4 net_144:2 net_144:3 0.0192
5 net_144:3 net_144:4 0.1341
6 net_144:4 net_144:5 0.4054
7 net_144:5 inst_111:A2 0.3681
*END

*D_NET net_102 0.7963
*CONN
*I inst_51:ZN O
*I inst_8:A4 I
*CAP
1 inst_51:ZN 0.1561
2 net_102:1 0.0224
3 net_102:2 0.3933
4 inst_8:A4 0.2244
*RES
2 inst_51:ZN net_102:1 0.4154
3 net_102:1 net_102:2 0.1374
4 net_102:2 inst_8:A4 0.1713
*END

*D_NET net_59 1.8689
*CONN
*I inst_34:ZN O
*I inst_47:A1 I
*CAP
1 inst_34:ZN 0.3119
2 net_59:1 0.3583
3 net_59:2 0.0251
4 net_59:3 0.0071
5 net_59:4 0.2242
6 net_59:5 0.4834
7 inst_47:A1 0.4589
*RES
2 inst_34:ZN net_59:1 0.0098
3 net_59:1 net_59:2 0.3264
4 net_59:2 net_59:3 0.2846
5 net_59:3 net_59:4 0.4721
6 net_59:4 net_59:5 0.1185
7 net_59:5 inst_47:A1 0.4585
*END

*D_NET net_42 1.8587
*CONN
*I inst_0:Z O
*I inst_41:A2 I
*CAP
1 inst_0:Z 0.0365
2 net_42:1 0.4335
3 net_42:2 0.3158
4 net_42:3 0.2513
5 net_42:4 0.4798
6 net_42:5 0.1640
7 inst_41:A2 0.1778
*RES
2 inst_0:Z net_42:1 0.3155
3 net_42:1 net_42:2 0.4909
4 net_42:2 net_42:3 0.2285
5 net_42:3 net_42:4 0.2293
6 net_42:4 net_42:5 0.4514
7 net_42:5 inst_41:A2 0.1489
*END

*D_NET net_109 3.0672
*CONN
*I inst_228:ZN O
*I inst_21:A1 I
*I inst_7:A2 I
*CAP
1 inst_228:ZN 0.1815
2 net_109:1 0.3238
3 net_109:2 0.1536
4 net_109:3 0.2744
5 inst_7:A2 0.3973
6 net_109:4 0.4392
7 net_109:5 0.4660
8 net_109:6 0.3296
9 net_109:7 0.2711
10 net_109:8 0.1177
11 inst_21:A1 0.1130
*RES
2 inst_228:ZN net_109:1 0.0682
3 net_109:1 net_109:2 0.0813
4 net_109:2 net_109:3 0.2235
5 net_109:3 inst_7:A2 0.0018
6 net_109:2 net_109:4 0.0719
7 net_109:4 net_109:5 0.2913
8 net_109:5 net_109:6 0.3837
9 net_109:6 net_109:7 0.4308
10 net_109:7 net_109:8 0.4593
11 net_109:8 inst_21:A1 0.4578
*END

*D_NET net_80 1.6302
*CONN
*I inst_229:ZN O
*I inst_54:A1 I
*CAP
1 inst_229:ZN 0.4235
2 net_80:1 0.4330
3 net_80:2 0.3792
4 inst_54:A1 0.3945
*RES
2 inst_229:ZN net_80:1 0.1168
3 net_80:1 net_80:2 0.0632
4 net_80:2 inst_54:A1 0.3389
*END

*D_NET net_65 2.7950
*CONN
*I inst_33:ZN O
*I inst_16:A3 I
*I inst_62:A1 I
*I inst_71:A2 I
*CAP
1 inst_33:ZN 0.0022
2 net_65:1 0.0342
3 net_65:2 0.1492
4 net_65:3 0.1342
5 net_65:4 0.2299
6 inst_62:A1 0.4466
7 net_65:5 0.0259
8 net_65:6 0.3818
9 net_65:7 0.2326
10 net_65:8 0.3632
11 inst_16:A3 0.2277
12 net_65:9 0.1519
13 inst_71:A2 0.4158
*RES
2 inst_33:ZN net_65:1 0.0789
3 net_65:1 net_65:2 0.1418
4 net_65:2 net_65:3 0.2162
5 net_65:3 net_65:4 0.3480
6 net_65:4 inst_62:A1 0.3423
7 net_65:3 net_65:5 0.1399
8 net_65:5 net_65:6 0.3067
9 net_65:6 net_65:7 0.2194
10 net_65:7 net_65:8 0.0694
11 net_65:8 inst_16:A3 0.1731
12 net_65:4 net_65:9 0.0326
13 net_65:9 inst_71:A2 0.2788
*END

*D_NET net_50 0.9590
*CONN
*I inst_94:ZN O
*I inst_98:A2 I
*CAP
1 inst_94:ZN 0.0975
2 net_50:1 0.3850
3 net_50:2 0.2235
4 inst_98:A2 0.2530
*RES
2 inst_94:ZN net_50:1 0.0538
3 net_50:1 net_50:2 0.1085
4 net_50:2 inst_98:A2 0.3839
*END

*D_NET net_162 1.1056
*CONN
*I inst_77:ZN O
*I inst_113:A1 I
*CAP
1 inst_77:ZN 0.1655
2 net_162:1 0.3040
3 net_162:2 0.3068
4 net_162:3 0.1313
5 net_162:4 0.0490
6 inst_113:A1 0.1490
*RES
2 inst_77:ZN net_162:1 0.4082
3 net_162:1 net_162:2 0.0586
4 net_162:2 net_162:3 0.2553
5 net_162:3 net_162:4 0.4766
6 net_162:4 inst_113:A1 0.4662
*END

*D_NET net_66 4.8438
*CONN
*I inst_80:ZN O
*I inst_231:A1 I
*I inst_83:A1 I
*I inst_104:A1 I
*I inst_98:A1 I
*CAP
1 inst_80:ZN 0.3524
2 net_66:1 0.3838
3 net_66:2 0.2328
4 net_66:3 0.0616
5 net_66:4 0.3670
6 net_66:5 0.3852
7 inst_231:A1 0.1467
8 net_66:6 0.0491
9 net_66:7 0.0298
10 net_66:8 0.3266
11 inst_83:A1 0.3430
12 net_66:9 0.2980
13 net_66:10 0.1661
14 net_66:11 0.4120
15 net_66:12 0.1627
16 net_66:13 0.0181
17 inst_104:A1 0.3748
18 net_66:14 0.2634
19 inst_98:A1 0.4707
*RES
2 inst_80:ZN net_66:1 0.2409
3 net_66:1 net_66:2 0.4071
4 net_66:2 net_66:3 0.2078
5 net_66:3 net_66:4 0.1018
6 net_66:4 net_66:5 0.2212
7 net_66:5 inst_231:A1 0.0552
8 net_66:2 net_66:6 0.0062
9 net_66:6 net_66:7 0.2799
10 net_66:7 net_66:8 0.1542
11 net_66:8 inst_83:A1 0.1497
12 net_66:5 net_66:9 0.3179
13 net_66:9 net_66:10 0.1204
14 net_66:10 net_66:11 0.0927
15 net_66:11 net_66:12 0.1679
16 net_66:12 net_66:13 0.0593
17 net_66:13 inst_104:A1 0.3745