*SPEF "IEEE 1481-1998"
*DESIGN "s526"
*DATE "Tue Nov 25 16:55:11 2014"
*VENDOR "TAU 2015 Contest"
*PROGRAM "Benchmark Parasitic Generator"
*VERSION "0.0"
*DESIGN_FLOW "NETLIST_TYPE_VERILOG"
*DIVIDER /
*DELIMITER :
*BUS_DELIMITER [ ]
*T_UNIT 1 PS
*C_UNIT 1 FF
*R_UNIT 1 KOHM
*L_UNIT 1 UH

*D_NET net_47 0.1512
*CONN
*I inst_114:ZN O
*I inst_220:A3 I
*CAP
1 inst_114:ZN 0.0166
2 inst_220:A3 0.0166
3 net_47:1 0.0152
4 net_47:2 0.0457
5 net_47:3 0.0419
6 net_47:4 0.0152
*RES
2 inst_114:ZN net_47:4 0.0050
3 net_47:1 inst_220:A3 0.0050
4 net_47:2 net_47:1 0.0050
5 net_47:2 net_47:3 0.0047
6 net_47:4 net_47:3 0.0050
*END

*D_NET net_176 0.1510
*CONN
*I inst_43:ZN O
*I inst_71:A3 I
*CAP
1 inst_43:ZN 0.0166
2 inst_71:A3 0.0143
3 net_176:1 0.0227
4 net_176:2 0.0152
5 net_176:3 0.0335
6 net_176:4 0.0335
7 net_176:5 0.0152
*RES
2 inst_43:ZN net_176:5 0.0050
3 inst_71:A3 net_176:1 0.0021
4 net_176:2 net_176:1 0.0050
5 net_176:3 net_176:2 0.0050
6 net_176:3 net_176:4 0.0034
7 net_176:5 net_176:4 0.0050
*END

*D_NET net_215 0.4460
*CONN
*I inst_177:ZN O
*I inst_17:A1 I
*I inst_108:A2 I
*CAP
1 inst_177:ZN 0.0166
2 inst_17:A1 0.0166
3 inst_108:A2 0.0166
4 net_215:1 0.0302
5 net_215:2 0.0302
6 net_215:3 0.0999
7 net_215:4 0.1130
8 net_215:5 0.0207
9 net_215:6 0.0350
10 net_215:7 0.0350
11 net_215:8 0.0161
12 net_215:9 0.0161
*RES
2 net_215:1 inst_17:A1 0.0050
3 net_215:2 net_215:1 0.0015
4 net_215:3 net_215:2 0.0050
5 net_215:4 net_215:3 0.0122
6 net_215:5 net_215:4 0.0020
7 net_215:5 net_215:6 0.0050
8 net_215:7 inst_108:A2 0.0050
9 net_215:7 net_215:6 0.0040
10 net_215:8 inst_177:ZN 0.0050
11 net_215:9 net_215:4 0.0050
12 net_215:9 net_215:8 0.0010
*END

*D_NET net_296 0.7450
*CONN
*I inst_302:Z O
*I inst_303:A I
*CAP
1 inst_302:Z 0.3292
2 net_296:1 0.2236
3 inst_303:A 0.1922
*RES
2 inst_302:Z net_296:1 0.2805
3 net_296:1 inst_303:A 0.1322
*END

*D_NET net_137 0.1078
*CONN
*I inst_192:ZN O
*I inst_76:A1 I
*CAP
1 inst_192:ZN 0.0166
2 inst_76:A1 0.0166
3 net_137:1 0.0152
4 net_137:2 0.0221
5 net_137:3 0.0221
6 net_137:4 0.0152
*RES
2 inst_192:ZN net_137:4 0.0050
3 net_137:1 inst_76:A1 0.0050
4 net_137:2 net_137:1 0.0050
5 net_137:2 net_137:3 0.0014
6 net_137:4 net_137:3 0.0050
*END

*D_NET net_132 0.9869
*CONN
*I inst_33:ZN O
*I inst_174:A I
*I inst_62:A1 I
*I inst_71:A2 I
*CAP
1 inst_33:ZN 0.0166
2 inst_174:A 0.0215
3 inst_62:A1 0.0166
4 inst_71:A2 0.0166
5 net_132:1 0.0298
6 net_132:2 0.0152
7 net_132:3 0.0459
8 net_132:4 0.0186
9 net_132:5 0.1725
10 net_132:6 0.1725
11 net_132:7 0.0354
12 net_132:8 0.0354
13 net_132:9 0.0479
14 net_132:10 0.0479
15 net_132:11 0.0120
16 net_132:12 0.0512
17 net_132:13 0.0468
18 net_132:14 0.0596
19 net_132:15 0.0596
20 net_132:16 0.0152
21 net_132:17 0.0152
22 net_132:18 0.0348
*RES
2 net_132:1 inst_174:A 0.0031
3 net_132:2 net_132:1 0.0050
4 net_132:3 net_132:2 0.0050
5 net_132:3 net_132:4 0.0017
6 net_132:4 net_132:5 0.0050
7 net_132:5 net_132:6 0.0069
8 net_132:6 net_132:7 0.0050
9 net_132:7 net_132:8 0.0040
10 net_132:8 net_132:9 0.0050
11 net_132:9 net_132:10 0.0010
12 net_132:10 net_132:11 0.0050
13 net_132:11 net_132:12 0.0010
14 net_132:12 net_132:13 0.0061
15 net_132:12 net_132:16 0.0050
16 net_132:13 net_132:14 0.0050
17 net_132:14 net_132:15 0.0065
18 net_132:15 inst_62:A1 0.0050
19 net_132:16 inst_71:A2 0.0050
20 net_132:17 inst_33:ZN 0.0050
21 net_132:18 net_132:3 0.0047
22 net_132:18 net_132:17 0.0050
*END

*D_NET net_54 0.3675
*CONN
*I inst_3:ZN O
*I inst_32:A2 I
*I inst_226:A2 I
*CAP
1 inst_3:ZN 0.0111
2 inst_32:A2 0.0166
3 inst_226:A2 0.0166
4 net_54:1 0.0301
5 net_54:2 0.0422
6 net_54:3 0.0384
7 net_54:4 0.0533
8 net_54:5 0.0194
9 net_54:6 0.0152
10 net_54:7 0.0449
11 net_54:8 0.0449
12 net_54:9 0.0347
*RES
2 inst_3:ZN net_54:5 0.0021
3 net_54:1 inst_32:A2 0.0050
4 net_54:1 net_54:2 0.0020
5 net_54:2 net_54:3 0.0014
6 net_54:3 net_54:4 0.0020
7 net_54:4 inst_226:A2 0.0050
8 net_54:4 net_54:9 0.0040
9 net_54:6 net_54:5 0.0050
10 net_54:7 net_54:6 0.0050
11 net_54:7 net_54:8 0.0034
12 net_54:9 net_54:8 0.0050
*END

*D_NET net_237 3.1959
*CONN
*I inst_243:Z O
*I inst_213:CK I
*I inst_244:A I
*CAP
1 inst_243:Z 0.4017
2 net_237:1 0.2976
3 net_237:2 0.2331
4 net_237:3 0.2927
5 net_237:4 0.3943
6 net_237:5 0.2211
7 inst_213:CK 0.1955
8 net_237:6 0.1808
9 net_237:7 0.0717
10 net_237:8 0.3990
11 net_237:9 0.4035
12 net_237:10 0.0219
13 inst_244:A 0.0830
*RES
2 inst_243:Z net_237:1 0.1868
3 net_237:1 net_237:2 0.4889
4 net_237:2 net_237:3 0.0703
5 net_237:3 net_237:4 0.3298
6 net_237:4 net_237:5 0.4131
7 net_237:5 inst_213:CK 0.3310
8 net_237:3 net_237:6 0.4539
9 net_237:6 net_237:7 0.1250
10 net_237:7 net_237:8 0.3196
11 net_237:8 net_237:9 0.4976
12 net_237:9 net_237:10 0.3591
13 net_237:10 inst_244:A 0.2780
*END

*D_NET net_105 0.1943
*CONN
*I inst_52:ZN O
*I inst_15:A3 I
*CAP
1 inst_52:ZN 0.0282
2 inst_15:A3 0.0154
3 net_105:1 0.0237
4 net_105:2 0.0152
5 net_105:3 0.0301
6 net_105:4 0.0301
7 net_105:5 0.0152
8 net_105:6 0.0365
*RES
2 inst_15:A3 net_105:1 0.0031
3 net_105:2 net_105:1 0.0050
4 net_105:3 net_105:2 0.0050
5 net_105:3 net_105:4 0.0014
6 net_105:5 net_105:4 0.0050
7 net_105:6 inst_52:ZN 0.0041
8 net_105:6 net_105:5 0.0050
*END

*D_NET net_129 0.0304
*CONN
*I inst_105:ZN O
*I inst_109:A2 I
*CAP
1 inst_105:ZN 0.0152
2 inst_109:A2 0.0152
*RES
2 inst_105:ZN inst_109:A2 0.0021
*END

*D_NET net_119 0.1309
*CONN
*I inst_103:ZN O
*I inst_105:A2 I
*CAP
1 inst_103:ZN 0.0326
2 inst_105:A2 0.0166
3 net_119:1 0.0204
4 net_119:2 0.0204
5 net_119:3 0.0409
*RES
2 inst_103:ZN net_119:3 0.0041
3 net_119:1 inst_105:A2 0.0050
4 net_119:1 net_119:2 0.0010
5 net_119:3 net_119:2 0.0050
*END

*D_NET net_98 0.3446
*CONN
*I inst_50:ZN O
*I inst_19:A2 I
*CAP
1 inst_50:ZN 0.0166
2 inst_19:A2 0.0166
3 net_98:1 0.0152
4 net_98:2 0.1303
5 net_98:3 0.1303
6 net_98:4 0.0178
7 net_98:5 0.0178
*RES
2 inst_19:A2 net_98:5 0.0050
3 net_98:1 inst_50:ZN 0.0050
4 net_98:2 net_98:1 0.0050
5 net_98:2 net_98:3 0.0136
6 net_98:4 net_98:3 0.0050
7 net_98:5 net_98:4 0.0010
*END

*D_NET net_12 0.7713
*CONN
*I inst_215:QN O
*I inst_196:A I
*I inst_32:A1 I
*I inst_74:A2 I
*CAP
1 inst_196:A 0.0166
2 inst_32:A1 0.0166
3 inst_74:A2 0.0166
4 inst_215:QN 0.0166
5 net_12:1 0.0263
6 net_12:2 0.0263
7 net_12:3 0.1184
8 net_12:4 0.1661
9 net_12:5 0.0554
10 net_12:6 0.0484
11 net_12:7 0.1429
12 net_12:8 0.1059
13 net_12:9 0.0152
*RES
2 net_12:1 inst_196:A 0.0050
3 net_12:1 net_12:2 0.0020
4 net_12:3 net_12:2 0.0050
5 net_12:4 net_12:3 0.0102
6 net_12:5 net_12:4 0.0027
7 net_12:5 net_12:6 0.0050
8 net_12:6 net_12:7 0.0030
9 net_12:7 inst_74:A2 0.0050
10 net_12:7 net_12:8 0.0120
11 net_12:8 inst_32:A1 0.0050
12 net_12:9 inst_215:QN 0.0050
13 net_12:9 net_12:4 0.0050
*END

*D_NET net_151 0.2336
*CONN
*I inst_88:ZN O
*I inst_77:A1 I
*CAP
1 inst_88:ZN 0.0166
2 inst_77:A1 0.0166
3 net_151:1 0.0498
4 net_151:2 0.0498
5 net_151:3 0.0409
6 net_151:4 0.0447
7 net_151:5 0.0152
*RES
2 inst_77:A1 net_151:5 0.0050
3 net_151:1 inst_88:ZN 0.0050
4 net_151:1 net_151:2 0.0040
5 net_151:3 net_151:2 0.0050
6 net_151:3 net_151:4 0.0027
7 net_151:5 net_151:4 0.0050
*END

*D_NET net_53 0.2386
*CONN
*I inst_95:ZN O
*I inst_70:A1 I
*CAP
1 inst_95:ZN 0.0166
2 inst_70:A1 0.0166
3 net_53:1 0.0152
4 net_53:2 0.0875
5 net_53:3 0.0875
6 net_53:4 0.0152
*RES
2 inst_70:A1 net_53:4 0.0050
3 net_53:1 inst_95:ZN 0.0050
4 net_53:2 net_53:1 0.0050
5 net_53:2 net_53:3 0.0034
6 net_53:4 net_53:3 0.0050
*END

*D_NET net_93 0.4865
*CONN
*I inst_226:ZN O
*I inst_61:A2 I
*I inst_48:A1 I
*CAP
1 inst_226:ZN 0.0166
2 inst_61:A2 0.0078
3 inst_48:A1 0.0166
4 net_93:1 0.0162
5 net_93:2 0.0608
6 net_93:3 0.0608
7 net_93:4 0.1348
8 net_93:5 0.0199
9 net_93:6 0.0152
10 net_93:7 0.0152
11 net_93:8 0.1225
*RES
2 net_93:1 inst_61:A2 0.0010
3 net_93:2 net_93:1 0.0050
4 net_93:2 net_93:3 0.0050
5 net_93:4 net_93:3 0.0050
6 net_93:4 net_93:5 0.0014
7 net_93:5 net_93:6 0.0050
8 net_93:6 inst_48:A1 0.0050
9 net_93:7 inst_226:ZN 0.0050
10 net_93:8 net_93:4 0.0095
11 net_93:8 net_93:7 0.0050
*END

*D_NET net_210 0.1191
*CONN
*I inst_54:ZN O
*I inst_73:A3 I
*CAP
1 inst_54:ZN 0.0072
2 inst_73:A3 0.0166
3 net_210:1 0.0155
4 net_210:2 0.0399
5 net_210:3 0.0399
*RES
2 inst_73:A3 net_210:3 0.0050
3 net_210:1 inst_54:ZN 0.0010
4 net_210:2 net_210:1 0.0050
5 net_210:2 net_210:3 0.0050
*END

*D_NET net_284 1.1896
*CONN
*I inst_290:Z O
*I inst_291:A I
*CAP
1 inst_290:Z 0.0283
2 net_284:1 0.2945
3 net_284:2 0.3177
4 net_284:3 0.2101
5 inst_291:A 0.3390
*RES
2 inst_290:Z net_284:1 0.2046
3 net_284:1 net_284:2 0.3404
4 net_284:2 net_284:3 0.1317
5 net_284:3 inst_291:A 0.3617
*END

*D_NET net_168 0.3121
*CONN
*I inst_113:ZN O
*I inst_214:D I
*CAP
1 inst_113:ZN 0.0080
2 inst_214:D 0.0166
3 net_168:1 0.0163
4 net_168:2 0.0539
5 net_168:3 0.0539
6 net_168:4 0.0221
7 net_168:5 0.0221
8 net_168:6 0.0596
9 net_168:7 0.0596
*RES
2 inst_113:ZN net_168:1 0.0010
3 inst_214:D net_168:7 0.0050
4 net_168:2 net_168:1 0.0050
5 net_168:2 net_168:3 0.0040
6 net_168:4 net_168:3 0.0050
7 net_168:4 net_168:5 0.0014
8 net_168:6 net_168:5 0.0050
9 net_168:6 net_168:7 0.0050
*END

*D_NET net_259 2.0765
*CONN
*I inst_265:Z O
*I inst_266:A I
*CAP
1 inst_265:Z 0.4947
2 net_259:1 0.2854
3 net_259:2 0.4464
4 net_259:3 0.2438
5 net_259:4 0.2969
6 inst_266:A 0.3091
*RES
2 inst_265:Z net_259:1 0.5006
3 net_259:1 net_259:2 0.2264
4 net_259:2 net_259:3 0.3973
5 net_259:3 net_259:4 0.2044
6 net_259:4 inst_266:A 0.1531
*END

*D_NET net_269 1.6751
*CONN
*I inst_275:Z O
*I inst_208:CK I
*I inst_287:A I
*CAP
1 inst_275:Z 0.2618
2 net_269:1 0.4002
3 net_269:2 0.3652
4 net_269:3 0.1857
5 inst_287:A 0.0562
6 net_269:4 0.1026
7 net_269:5 0.1939
8 inst_208:CK 0.1095
*RES
2 inst_275:Z net_269:1 0.0882
3 net_269:1 net_269:2 0.4386
4 net_269:2 net_269:3 0.2715
5 net_269:3 inst_287:A 0.0199
6 net_269:1 net_269:4 0.0212
7 net_269:4 net_269:5 0.1417
8 net_269:5 inst_208:CK 0.2190
*END

*D_NET net_127 0.1636
*CONN
*I inst_14:ZN O
*I inst_206:D I
*CAP
1 inst_14:ZN 0.0166
2 inst_206:D 0.0166
3 net_127:1 0.0272
4 net_127:2 0.0295
5 net_127:3 0.0380
6 net_127:4 0.0357
*RES
2 inst_14:ZN net_127:4 0.0050
3 net_127:1 inst_206:D 0.0050
4 net_127:2 net_127:1 0.0020
5 net_127:3 net_127:2 0.0010
6 net_127:4 net_127:3 0.0025
*END

*D_NET G147 0.8607
*CONN
*I inst_198:ZN O
*P G147 O
*CAP
1 G147 0.0012
2 inst_198:ZN 0.0166
3 G147:1 0.2273
4 G147:2 0.2311
5 G147:3 0.1860
6 G147:4 0.1860
7 G147:5 0.0126
*RES
2 G147 G147:5 0.0010
3 G147:1 inst_198:ZN 0.0050
4 G147:2 G147:1 0.0190
5 G147:3 G147:2 0.0050
6 G147:3 G147:4 0.0264
7 G147:5 G147:4 0.0050
*END

*D_NET net_76 0.2014
*CONN
*I inst_41:ZN O
*I inst_200:D I
*CAP
1 inst_41:ZN 0.0166
2 inst_200:D 0.0166
3 net_76:1 0.0152
4 net_76:2 0.0689
5 net_76:3 0.0689
6 net_76:4 0.0152
*RES
2 inst_41:ZN net_76:4 0.0050
3 net_76:1 inst_200:D 0.0050
4 net_76:2 net_76:1 0.0050
5 net_76:3 net_76:2 0.0068
6 net_76:4 net_76:3 0.0050
*END

*D_NET net_101 0.6390
*CONN
*I inst_25:ZN O
*I inst_119:A I
*I inst_27:A2 I
*CAP
1 inst_25:ZN 0.0166
2 inst_119:A 0.0166
3 inst_27:A2 0.0166
4 net_101:1 0.0366
5 net_101:2 0.0366
6 net_101:3 0.2113
7 net_101:4 0.0331
8 net_101:5 0.0178
9 net_101:6 0.0178
10 net_101:7 0.0250
11 net_101:8 0.0250
12 net_101:9 0.1858
*RES
2 net_101:1 inst_119:A 0.0050
3 net_101:1 net_101:2 0.0030
4 net_101:3 net_101:2 0.0050
5 net_101:3 net_101:4 0.0027
6 net_101:4 net_101:5 0.0050
7 net_101:6 inst_27:A2 0.0050
8 net_101:6 net_101:5 0.0010
9 net_101:7 inst_25:ZN 0.0050
10 net_101:8 net_101:7 0.0015
11 net_101:9 net_101:3 0.0190
12 net_101:9 net_101:8 0.0050
*END

*D_NET net_187 0.0415
*CONN
*I inst_134:ZN O
*I inst_42:A1 I
*CAP
1 inst_134:ZN 0.0010
2 inst_42:A1 0.0010
3 net_187:1 0.0198
4 net_187:2 0.0198
*RES
2 inst_134:ZN net_187:2 0.0050
3 net_187:1 inst_42:A1 0.0050
4 net_187:1 net_187:2 0.0014
*END

*D_NET net_111 0.7877
*CONN
*I inst_84:ZN O
*I inst_13:A1 I
*I inst_70:A3 I
*CAP
1 inst_84:ZN 0.0332
2 inst_13:A1 0.0166
3 inst_70:A3 0.0166
4 net_111:1 0.0357
5 net_111:2 0.0357
6 net_111:3 0.0716
7 net_111:4 0.0716
8 net_111:5 0.0203
9 net_111:6 0.0203
10 net_111:7 0.0152
11 net_111:8 0.0159
12 net_111:9 0.0197
13 net_111:10 0.1203
14 net_111:11 0.1203
15 net_111:12 0.0152
16 net_111:13 0.0798
17 net_111:14 0.0798
*RES
2 inst_84:ZN net_111:6 0.0050
3 inst_70:A3 net_111:14 0.0050
4 net_111:1 inst_13:A1 0.0050
5 net_111:2 net_111:1 0.0025
6 net_111:3 net_111:2 0.0050
7 net_111:3 net_111:4 0.0102
8 net_111:5 net_111:4 0.0050
9 net_111:6 net_111:5 0.0010
10 net_111:7 inst_84:ZN 0.0050
11 net_111:8 net_111:7 0.0050
12 net_111:9 net_111:8 0.0010
13 net_111:10 net_111:9 0.0050
14 net_111:11 net_111:10 0.0023
15 net_111:12 net_111:11 0.0050
16 net_111:13 net_111:12 0.0050
17 net_111:14 net_111:13 0.0085
*END

*D_NET net_264 0.1666
*CONN
*I inst_270:Z O
*I inst_209:CK I
*CAP
1 inst_270:Z 0.0121
2 net_264:1 0.0267
3 inst_209:CK 0.1278
*RES
2 inst_270:Z net_264:1 0.1079
3 net_264:1 inst_209:CK 0.3621
*END

*D_NET net_90 0.1851
*CONN
*I inst_11:ZN O
*I inst_15:A2 I
*CAP
1 inst_11:ZN 0.0358
2 inst_15:A2 0.0166
3 net_90:1 0.0152
4 net_90:2 0.0291
5 net_90:3 0.0291
6 net_90:4 0.0152
7 net_90:5 0.0441
*RES
2 inst_11:ZN net_90:5 0.0052
3 net_90:1 inst_15:A2 0.0050
4 net_90:2 net_90:1 0.0050
5 net_90:3 net_90:2 0.0027
6 net_90:4 net_90:3 0.0050
7 net_90:5 net_90:4 0.0050
*END

*D_NET net_225 1.2596
*CONN
*I inst_211:QN O
*I inst_117:A I
*I inst_22:A2 I
*I inst_224:A1 I
*CAP
1 inst_117:A 0.0166
2 inst_22:A2 0.0166
3 inst_224:A1 0.0241
4 inst_211:QN 0.0166
5 net_225:1 0.1222
6 net_225:2 0.0631
7 net_225:3 0.0483
8 net_225:4 0.0483
9 net_225:5 0.0827
10 net_225:6 0.0827
11 net_225:7 0.0189
12 net_225:8 0.0189
13 net_225:9 0.0793
14 net_225:10 0.0793
15 net_225:11 0.0110
16 net_225:12 0.0110
17 net_225:13 0.0586
18 net_225:14 0.0548
19 net_225:15 0.0435
20 net_225:16 0.0435
21 net_225:17 0.0517
22 net_225:18 0.0517
23 net_225:19 0.0324
24 net_225:20 0.0152
25 net_225:21 0.0491
26 net_225:22 0.0491
27 net_225:23 0.0705
*RES
2 net_225:1 inst_117:A 0.0050
3 net_225:1 net_225:2 0.0065
4 net_225:2 net_225:3 0.0050
5 net_225:4 net_225:3 0.0041
6 net_225:4 net_225:5 0.0050
7 net_225:5 net_225:6 0.0100
8 net_225:6 net_225:7 0.0050
9 net_225:7 net_225:8 0.0010
10 net_225:8 net_225:9 0.0050
11 net_225:9 net_225:10 0.0034
12 net_225:10 net_225:11 0.0050
13 net_225:11 net_225:12 0.0010
14 net_225:12 net_225:13 0.0050
15 net_225:13 inst_22:A2 0.0050
16 net_225:13 net_225:14 0.0035
17 net_225:14 net_225:15 0.0050
18 net_225:15 net_225:16 0.0020
19 net_225:16 net_225:17 0.0050
20 net_225:17 net_225:18 0.0030
21 net_225:18 net_225:19 0.0050
22 net_225:19 inst_224:A1 0.0031
23 net_225:20 inst_211:QN 0.0050
24 net_225:21 net_225:20 0.0050
25 net_225:21 net_225:22 0.0041
26 net_225:23 net_225:1 0.0075
27 net_225:23 net_225:22 0.0050
*END

*D_NET net_283 2.0149
*CONN
*I inst_289:Z O
*I inst_202:CK I
*CAP
1 inst_289:Z 0.3490
2 net_283:1 0.3195
3 net_283:2 0.4748
4 net_283:3 0.2505
5 net_283:4 0.2036
6 net_283:5 0.3990
7 inst_202:CK 0.0185
*RES
2 inst_289:Z net_283:1 0.3777
3 net_283:1 net_283:2 0.2437
4 net_283:2 net_283:3 0.3641
5 net_283:3 net_283:4 0.1411
6 net_283:4 net_283:5 0.2452
7 net_283:5 inst_202:CK 0.2723
*END

*D_NET net_100 0.3315
*CONN
*I inst_83:ZN O
*I inst_26:A1 I
*I inst_27:A1 I
*CAP
1 inst_83:ZN 0.0166
2 inst_26:A1 0.0076
3 inst_27:A1 0.0166
4 net_100:1 0.0159
5 net_100:2 0.0152
6 net_100:3 0.0886
7 net_100:4 0.0603
8 net_100:5 0.0298
9 net_100:6 0.0298
10 net_100:7 0.0152
11 net_100:8 0.0359
*RES
2 net_100:1 inst_26:A1 0.0010
3 net_100:2 net_100:1 0.0050
4 net_100:3 net_100:2 0.0050
5 net_100:3 net_100:4 0.0054
6 net_100:4 net_100:5 0.0050
7 net_100:5 net_100:6 0.0025
8 net_100:6 inst_27:A1 0.0050
9 net_100:7 inst_83:ZN 0.0050
10 net_100:8 net_100:3 0.0034
11 net_100:8 net_100:7 0.0050
*END

*D_NET net_85 0.2426
*CONN
*I inst_46:ZN O
*I inst_20:A3 I
*CAP
1 inst_46:ZN 0.0072
2 inst_20:A3 0.0166
3 net_85:1 0.0155
4 net_85:2 0.0496
5 net_85:3 0.0496
6 net_85:4 0.0445
7 net_85:5 0.0445
8 net_85:6 0.0152
*RES
2 inst_46:ZN net_85:1 0.0010
3 inst_20:A3 net_85:6 0.0050
4 net_85:2 net_85:1 0.0050
5 net_85:2 net_85:3 0.0045
6 net_85:4 net_85:3 0.0050
7 net_85:4 net_85:5 0.0047
8 net_85:6 net_85:5 0.0050
*END

*D_NET net_263 0.9773
*CONN
*I inst_269:Z O
*I inst_270:A I
*CAP
1 inst_269:Z 0.1906
2 net_263:1 0.0937
3 net_263:2 0.2944
4 inst_270:A 0.3987
*RES
2 inst_269:Z net_263:1 0.0209
3 net_263:1 net_263:2 0.1182
4 net_263:2 inst_270:A 0.1067
*END

*D_NET net_252 2.0282
*CONN
*I inst_258:Z O
*I inst_217:CK I
*CAP
1 inst_258:Z 0.3672
2 net_252:1 0.1157
3 net_252:2 0.1901
4 net_252:3 0.2138
5 net_252:4 0.5008
6 net_252:5 0.2979
7 inst_217:CK 0.3428
*RES
2 inst_258:Z net_252:1 0.2325
3 net_252:1 net_252:2 0.2733
4 net_252:2 net_252:3 0.1266
5 net_252:3 net_252:4 0.3814
6 net_252:4 net_252:5 0.1363
7 net_252:5 inst_217:CK 0.3277
*END

*D_NET net_124 1.1610
*CONN
*I inst_102:ZN O
*I inst_221:A1 I
*I inst_104:A2 I
*CAP
1 inst_102:ZN 0.0166
2 inst_221:A1 0.0084
3 inst_104:A2 0.0076
4 net_124:1 0.0167
5 net_124:2 0.0204
6 net_124:3 0.0204
7 net_124:4 0.0086
8 net_124:5 0.1495
9 net_124:6 0.1485
10 net_124:7 0.0370
11 net_124:8 0.0370
12 net_124:9 0.0159
13 net_124:10 0.0337
14 net_124:11 0.0337
15 net_124:12 0.0525
16 net_124:13 0.0525
17 net_124:14 0.2510
18 net_124:15 0.2510
*RES
2 inst_221:A1 net_124:1 0.0010
3 net_124:2 net_124:1 0.0050
4 net_124:2 net_124:3 0.0010
5 net_124:4 net_124:3 0.0050
6 net_124:4 net_124:5 0.0010
7 net_124:5 net_124:6 0.0175
8 net_124:6 net_124:7 0.0050
9 net_124:7 net_124:8 0.0020
10 net_124:8 net_124:9 0.0050
11 net_124:9 inst_104:A2 0.0010
12 net_124:10 inst_102:ZN 0.0050
13 net_124:11 net_124:10 0.0025
14 net_124:12 net_124:11 0.0050
15 net_124:13 net_124:12 0.0026
16 net_124:14 net_124:13 0.0050
17 net_124:15 net_124:5 0.0050
18 net_124:15 net_124:14 0.0082
*END

*D_NET net_240 1.0395
*CONN
*I inst_246:Z O
*I inst_247:A I
*CAP
1 inst_246:Z 0.0715
2 net_240:1 0.1861
3 net_240:2 0.4367
4 inst_247:A 0.3452
*RES
2 inst_246:Z net_240:1 0.0313
3 net_240:1 net_240:2 0.1217
4 net_240:2 inst_247:A 0.0111
*END

*D_NET net_160 0.1970
*CONN
*I inst_20:ZN O
*I inst_218:D I
*CAP
1 inst_20:ZN 0.0166
2 inst_218:D 0.0166
3 net_160:1 0.0338
4 net_160:2 0.0338
5 net_160:3 0.0405
6 net_160:4 0.0405
7 net_160:5 0.0152
*RES
2 inst_218:D net_160:5 0.0050
3 net_160:1 inst_20:ZN 0.0050
4 net_160:2 net_160:1 0.0035
5 net_160:3 net_160:2 0.0050
6 net_160:3 net_160:4 0.0034
7 net_160:5 net_160:4 0.0050
*END

*D_NET net_221 0.1253
*CONN
*I inst_194:ZN O
*I inst_4:A2 I
*CAP
1 inst_194:ZN 0.0166
2 inst_4:A2 0.0166
3 net_221:1 0.0152
4 net_221:2 0.0308
5 net_221:3 0.0308
6 net_221:4 0.0152
*RES
2 inst_4:A2 net_221:4 0.0050
3 net_221:1 inst_194:ZN 0.0050
4 net_221:2 net_221:1 0.0050
5 net_221:2 net_221:3 0.0020
6 net_221:4 net_221:3 0.0050
*END

*D_NET net_115 0.4283
*CONN
*I inst_220:ZN O
*I inst_202:D I
*CAP
1 inst_220:ZN 0.0166
2 inst_202:D 0.0166
3 net_115:1 0.0428
4 net_115:2 0.0451
5 net_115:3 0.0281
6 net_115:4 0.0259
7 net_115:5 0.0822
8 net_115:6 0.0822
9 net_115:7 0.0444
10 net_115:8 0.0444
*RES
2 inst_202:D net_115:8 0.0050
3 net_115:1 inst_220:ZN 0.0050
4 net_115:1 net_115:2 0.0030
5 net_115:3 net_115:2 0.0010
6 net_115:3 net_115:4 0.0020
7 net_115:5 net_115:4 0.0050
8 net_115:6 net_115:5 0.0061
9 net_115:7 net_115:6 0.0050
10 net_115:7 net_115:8 0.0035
*END

*D_NET net_4 0.1861
*CONN
*I inst_204:QN O
*I inst_144:A I
*CAP
1 inst_144:A 0.0166
2 inst_204:QN 0.0166
3 net_4:1 0.0152
4 net_4:2 0.0175
5 net_4:3 0.0175
6 net_4:4 0.0514
7 net_4:5 0.0514
*RES
2 inst_144:A net_4:5 0.0050
3 net_4:1 inst_204:QN 0.0050
4 net_4:2 net_4:1 0.0050
5 net_4:2 net_4:3 0.0014
6 net_4:4 net_4:3 0.0050
7 net_4:4 net_4:5 0.0045
*END

*D_NET net_17 0.0425
*CONN
*I inst_188:ZN O
*I inst_145:A I
*I inst_225:A1 I
*CAP
1 inst_188:ZN 0.0213
2 inst_145:A 0.0072
3 inst_225:A1 0.0141
*RES
2 inst_188:ZN inst_145:A 0.0010
3 inst_225:A1 inst_188:ZN 0.0021
*END

*D_NET net_295 2.1838
*CONN
*I inst_301:Z O
*I inst_302:A I
*CAP
1 inst_301:Z 0.3806
2 net_295:1 0.4608
3 net_295:2 0.4692
4 net_295:3 0.4766
5 net_295:4 0.0589
6 net_295:5 0.0962
7 inst_302:A 0.2415
*RES
2 inst_301:Z net_295:1 0.1750
3 net_295:1 net_295:2 0.4103
4 net_295:2 net_295:3 0.0845
5 net_295:3 net_295:4 0.1888
6 net_295:4 net_295:5 0.1436
7 net_295:5 inst_302:A 0.1762
*END

*D_NET net_164 0.1860
*CONN
*I inst_110:ZN O
*I inst_217:D I
*CAP
1 inst_110:ZN 0.0076
2 inst_217:D 0.0143
3 net_164:1 0.0159
4 net_164:2 0.0331
5 net_164:3 0.0331
6 net_164:4 0.0221
7 net_164:5 0.0221
8 net_164:6 0.0152
9 net_164:7 0.0226
*RES
2 inst_217:D net_164:7 0.0021
3 net_164:1 inst_110:ZN 0.0010
4 net_164:2 net_164:1 0.0050
5 net_164:3 net_164:2 0.0035
6 net_164:4 net_164:3 0.0050
7 net_164:5 net_164:4 0.0014
8 net_164:6 net_164:5 0.0050
9 net_164:7 net_164:6 0.0050
*END

*D_NET net_87 0.1284
*CONN
*I inst_232:ZN O
*I inst_56:A2 I
*CAP
1 inst_232:ZN 0.0166
2 inst_56:A2 0.0078
3 net_87:1 0.0152
4 net_87:2 0.0287
5 net_87:3 0.0287
6 net_87:4 0.0152
7 net_87:5 0.0162
*RES
2 inst_56:A2 net_87:5 0.0010
3 net_87:1 inst_232:ZN 0.0050
4 net_87:2 net_87:1 0.0050
5 net_87:3 net_87:2 0.0027
6 net_87:4 net_87:3 0.0050
7 net_87:5 net_87:4 0.0050
*END

*D_NET net_288 1.1766
*CONN
*I inst_294:Z O
*I inst_295:A I
*CAP
1 inst_294:Z 0.1458
2 net_288:1 0.0683
3 net_288:2 0.2135
4 net_288:3 0.4484
5 net_288:4 0.1379
6 net_288:5 0.1139
7 inst_295:A 0.0489
*RES
2 inst_294:Z net_288:1 0.0861
3 net_288:1 net_288:2 0.1477
4 net_288:2 net_288:3 0.4806
5 net_288:3 net_288:4 0.3473
6 net_288:4 net_288:5 0.1114
7 net_288:5 inst_295:A 0.0198
*END

*D_NET net_0 0.1517
*CONN
*I inst_199:QN O
*I inst_140:A I
*CAP
1 inst_140:A 0.0166
2 inst_199:QN 0.0166
3 net_0:1 0.0225
4 net_0:2 0.0247
5 net_0:3 0.0368
6 net_0:4 0.0345
*RES
2 inst_199:QN net_0:4 0.0050
3 net_0:1 inst_140:A 0.0050
4 net_0:1 net_0:2 0.0025
5 net_0:2 net_0:3 0.0010
6 net_0:3 net_0:4 0.0020
*END

*D_NET net_35 0.1677
*CONN
*I inst_168:ZN O
*I inst_36:A1 I
*CAP
1 inst_168:ZN 0.0166
2 inst_36:A1 0.0166
3 net_35:1 0.0247
4 net_35:2 0.0247
5 net_35:3 0.0218
6 net_35:4 0.0218
7 net_35:5 0.0208
8 net_35:6 0.0208
*RES
2 inst_168:ZN net_35:6 0.0050
3 net_35:1 inst_36:A1 0.0050
4 net_35:2 net_35:1 0.0015
5 net_35:3 net_35:2 0.0050
6 net_35:4 net_35:3 0.0020
7 net_35:5 net_35:4 0.0050
8 net_35:6 net_35:5 0.0010
*END

*D_NET net_16 0.2727
*CONN
*I inst_201:QN O
*I inst_142:A I
*CAP
1 inst_142:A 0.0166
2 inst_201:QN 0.0166
3 net_16:1 0.1216
4 net_16:2 0.1178
*RES
2 inst_142:A net_16:2 0.0050
3 net_16:1 inst_201:QN 0.0050
4 net_16:2 net_16:1 0.0145
*END

*D_NET net_239 1.3427
*CONN
*I inst_245:Z O
*I inst_212:CK I
*CAP
1 inst_245:Z 0.0500
2 net_239:1 0.2552
3 net_239:2 0.2397
4 net_239:3 0.3943
5 net_239:4 0.0450
6 inst_212:CK 0.3586
*RES
2 inst_245:Z net_239:1 0.1804
3 net_239:1 net_239:2 0.2132
4 net_239:2 net_239:3 0.3448
5 net_239:3 net_239:4 0.2539
6 net_239:4 inst_212:CK 0.0169
*END

*D_NET net_193 0.3887
*CONN
*I inst_182:ZN O
*I inst_130:A I
*I inst_223:A2 I
*CAP
1 inst_182:ZN 0.0166
2 inst_130:A 0.0196
3 inst_223:A2 0.0166
4 net_193:1 0.0155
5 net_193:2 0.0152
6 net_193:3 0.0185
7 net_193:4 0.0185
8 net_193:5 0.0203
9 net_193:6 0.0203
10 net_193:7 0.1138
11 net_193:8 0.1138
*RES
2 inst_130:A net_193:1 0.0010
3 net_193:1 net_193:2 0.0050
4 net_193:2 net_193:3 0.0050
5 net_193:3 net_193:4 0.0014
6 net_193:4 net_193:5 0.0050
7 net_193:5 net_193:6 0.0010
8 net_193:6 inst_223:A2 0.0050
9 net_193:7 inst_182:ZN 0.0050
10 net_193:8 inst_130:A 0.0050
11 net_193:8 net_193:7 0.0095
*END

*D_NET net_157 0.1621
*CONN
*I inst_76:ZN O
*I inst_111:A1 I
*CAP
1 inst_76:ZN 0.0166
2 inst_111:A1 0.0166
3 net_157:1 0.0152
4 net_157:2 0.0493
5 net_157:3 0.0493
6 net_157:4 0.0152
*RES
2 inst_76:ZN net_157:4 0.0050
3 net_157:1 inst_111:A1 0.0050
4 net_157:2 net_157:1 0.0050
5 net_157:2 net_157:3 0.0047
6 net_157:4 net_157:3 0.0050
*END

*D_NET net_257 2.0737
*CONN
*I inst_263:Z O
*I inst_215:CK I
*I inst_288:A I
*CAP
1 inst_263:Z 0.2798
2 net_257:1 0.0137
3 net_257:2 0.2108
4 net_257:3 0.3101
5 net_257:4 0.0161
6 inst_215:CK 0.2047
7 net_257:5 0.3526
8 net_257:6 0.3715
9 inst_288:A 0.3144
*RES
2 inst_263:Z net_257:1 0.3729
3 net_257:1 net_257:2 0.0610
4 net_257:2 net_257:3 0.4010
5 net_257:3 net_257:4 0.2910
6 net_257:4 inst_215:CK 0.3768
7 net_257:3 net_257:5 0.3618
8 net_257:5 net_257:6 0.0820
9 net_257:6 inst_288:A 0.2174
*END

*D_NET net_233 2.5702
*CONN
*I inst_239:Z O
*I inst_240:A I
*I inst_246:A I
*CAP
1 inst_239:Z 0.4791
2 net_233:1 0.2444
3 net_233:2 0.4262
4 net_233:3 0.3737
5 inst_240:A 0.3015
6 net_233:4 0.0277
7 net_233:5 0.4263
8 inst_246:A 0.2912
*RES
2 inst_239:Z net_233:1 0.1830
3 net_233:1 net_233:2 0.3035
4 net_233:2 net_233:3 0.4053
5 net_233:3 inst_240:A 0.0863
6 net_233:2 net_233:4 0.1111
7 net_233:4 net_233:5 0.3711
8 net_233:5 inst_246:A 0.0512
*END

*D_NET net_42 0.0152
*CONN
*I inst_0:Z O
*I inst_41:A2 I
*CAP
1 inst_0:Z 0.0076
2 inst_41:A2 0.0076
*RES
2 inst_0:Z inst_41:A2 0.0010
*END

*D_NET net_120 0.1958
*CONN
*I inst_69:ZN O
*I inst_175:A I
*CAP
1 inst_69:ZN 0.0166
2 inst_175:A 0.0166
3 net_120:1 0.0331
4 net_120:2 0.0331
5 net_120:3 0.0303
6 net_120:4 0.0303
7 net_120:5 0.0180
8 net_120:6 0.0180
*RES
2 inst_69:ZN net_120:6 0.0050
3 net_120:1 inst_175:A 0.0050
4 net_120:2 net_120:1 0.0020
5 net_120:3 net_120:2 0.0050
6 net_120:3 net_120:4 0.0014
7 net_120:5 net_120:4 0.0050
8 net_120:6 net_120:5 0.0010
*END

*D_NET net_292 2.0583
*CONN
*I inst_298:Z O
*I inst_200:CK I
*CAP
1 inst_298:Z 0.4610
2 net_292:1 0.2776
3 net_292:2 0.3781
4 net_292:3 0.3766
5 net_292:4 0.0185
6 net_292:5 0.3877
7 inst_200:CK 0.1588
*RES
2 inst_298:Z net_292:1 0.3738
3 net_292:1 net_292:2 0.4556
4 net_292:2 net_292:3 0.1835
5 net_292:3 net_292:4 0.0020
6 net_292:4 net_292:5 0.2614
7 net_292:5 inst_200:CK 0.3010
*END

*D_NET net_201 0.6217
*CONN
*I inst_124:ZN O
*I inst_179:A I
*I inst_180:A I
*I inst_28:A1 I
*I inst_2:A1 I
*CAP
1 inst_124:ZN 0.0166
2 inst_179:A 0.0166
3 inst_180:A 0.0166
4 inst_28:A1 0.0228
5 inst_2:A1 0.0166
6 net_201:1 0.0193
7 net_201:2 0.0193
8 net_201:3 0.0272
9 net_201:4 0.0272
10 net_201:5 0.0460
11 net_201:6 0.0422
12 net_201:7 0.0536
13 net_201:8 0.0843
14 net_201:9 0.0383
15 net_201:10 0.0556
16 net_201:11 0.0556
17 net_201:12 0.0311
18 net_201:13 0.0164
19 net_201:14 0.0164
*RES
2 net_201:1 inst_179:A 0.0050
3 net_201:2 net_201:1 0.0010
4 net_201:3 net_201:2 0.0050
5 net_201:4 net_201:3 0.0014
6 net_201:5 net_201:4 0.0050
7 net_201:6 inst_2:A1 0.0050
8 net_201:6 net_201:5 0.0025
9 net_201:7 net_201:6 0.0050
10 net_201:8 net_201:7 0.0041
11 net_201:9 net_201:8 0.0041
12 net_201:9 net_201:10 0.0050
13 net_201:10 inst_180:A 0.0050
14 net_201:11 net_201:10 0.0070
15 net_201:11 net_201:12 0.0050
16 net_201:12 inst_28:A1 0.0031
17 net_201:13 inst_124:ZN 0.0050
18 net_201:14 net_201:8 0.0050
19 net_201:14 net_201:13 0.0010
*END

*D_NET net_109 0.5758
*CONN
*I inst_228:ZN O
*I inst_7:A2 I
*I inst_21:A1 I
*CAP
1 inst_228:ZN 0.0166
2 inst_7:A2 0.0166
3 inst_21:A1 0.0166
4 net_109:1 0.0657
5 net_109:2 0.0695
6 net_109:3 0.1763
7 net_109:4 0.1234
8 net_109:5 0.0152
9 net_109:6 0.0152
10 net_109:7 0.0605
*RES
2 net_109:1 inst_21:A1 0.0050
3 net_109:1 net_109:2 0.0045
4 net_109:3 net_109:2 0.0050
5 net_109:3 net_109:4 0.0075
6 net_109:4 net_109:5 0.0050
7 net_109:5 inst_7:A2 0.0050
8 net_109:6 inst_228:ZN 0.0050
9 net_109:7 net_109:3 0.0041
10 net_109:7 net_109:6 0.0050
*END

*D_NET net_80 0.3840
*CONN
*I inst_229:ZN O
*I inst_54:A1 I
*CAP
1 inst_229:ZN 0.0076
2 inst_54:A1 0.0166
3 net_80:1 0.0159
4 net_80:2 0.0403
5 net_80:3 0.0403
6 net_80:4 0.0089
7 net_80:5 0.0089
8 net_80:6 0.0917
9 net_80:7 0.0917
10 net_80:8 0.0108
11 net_80:9 0.0108
12 net_80:10 0.0202
13 net_80:11 0.0202
*RES
2 inst_229:ZN net_80:1 0.0010
3 inst_54:A1 net_80:11 0.0050
4 net_80:2 net_80:1 0.0050
5 net_80:3 net_80:2 0.0030
6 net_80:4 net_80:3 0.0050
7 net_80:4 net_80:5 0.0010
8 net_80:6 net_80:5 0.0050
9 net_80:7 net_80:6 0.0025
10 net_80:8 net_80:7 0.0050
11 net_80:9 net_80:8 0.0010
12 net_80:10 net_80:9 0.0050
13 net_80:11 net_80:10 0.0010
*END

*D_NET net_65 0.2480
*CONN
*I inst_174:ZN O
*I inst_16:A3 I
*CAP
1 inst_174:ZN 0.0800
2 inst_16:A3 0.0166
3 net_65:1 0.0883
4 net_65:2 0.0316
5 net_65:3 0.0316
*RES
2 inst_174:ZN net_65:1 0.0103
3 inst_16:A3 net_65:3 0.0050
4 net_65:2 net_65:1 0.0050
5 net_65:3 net_65:2 0.0035
*END

*D_NET blif_reset_net 1.0174
*CONN
*P blif_reset_net I
*I inst_197:A I
*CAP
1 blif_reset_net 0.0010
2 inst_197:A 0.0347
3 blif_reset_net:1 0.0124
4 blif_reset_net:2 0.0173
5 blif_reset_net:3 0.0152
6 blif_reset_net:4 0.1842
7 blif_reset_net:5 0.1863
8 blif_reset_net:6 0.2617
9 blif_reset_net:7 0.2617
10 blif_reset_net:8 0.0431
*RES
2 inst_197:A blif_reset_net:8 0.0052
3 blif_reset_net:1 blif_reset_net 0.0010
4 blif_reset_net:2 blif_reset_net:1 0.0050
5 blif_reset_net:3 blif_reset_net:2 0.0011
6 blif_reset_net:4 blif_reset_net:3 0.0010
7 blif_reset_net:5 blif_reset_net:4 0.0170
8 blif_reset_net:6 blif_reset_net:5 0.0050
9 blif_reset_net:7 blif_reset_net:6 0.0205
10 blif_reset_net:8 blif_reset_net:7 0.0050
*END

*D_NET net_50 0.1885
*CONN
*I inst_94:ZN O
*I inst_98:A2 I
*CAP
1 inst_94:ZN 0.0166
2 inst_98:A2 0.0166
3 net_50:1 0.0167
4 net_50:2 0.0167
5 net_50:3 0.0431
6 net_50:4 0.0431
7 net_50:5 0.0178
8 net_50:6 0.0178
*RES
2 inst_98:A2 net_50:6 0.0050
3 net_50:1 inst_94:ZN 0.0050
4 net_50:2 net_50:1 0.0010
5 net_50:3 net_50:2 0.0050
6 net_50:3 net_50:4 0.0041
7 net_50:5 net_50:4 0.0050
8 net_50:5 net_50:6 0.0010
*END

*D_NET net_234 1.0435
*CONN
*I inst_240:Z O
*I inst_214:CK I
*CAP
1 inst_240:Z 0.4372
2 net_234:1 0.1153
3 net_234:2 0.3810
4 inst_214:CK 0.1100
*RES
2 inst_240:Z net_234:1 0.1662
3 net_234:1 net_234:2 0.3178
4 net_234:2 inst_214:CK 0.2541
*END

*D_NET net_96 0.3366
*CONN
*I inst_99:ZN O
*I inst_64:A3 I
*CAP
1 inst_99:ZN 0.0166
2 inst_64:A3 0.0166
3 net_96:1 0.0285
4 net_96:2 0.0285
5 net_96:3 0.0992
6 net_96:4 0.0992
7 net_96:5 0.0239
8 net_96:6 0.0239
*RES
2 inst_64:A3 net_96:6 0.0050
3 net_96:1 inst_99:ZN 0.0050
4 net_96:1 net_96:2 0.0015
5 net_96:3 net_96:2 0.0050
6 net_96:4 net_96:3 0.0102
7 net_96:5 net_96:4 0.0050
8 net_96:6 net_96:5 0.0015
*END

*D_NET net_66 0.4499
*CONN
*I inst_170:ZN O
*I inst_231:A1 I