*SPEF "IEEE 1481-1998"
*DESIGN "changes"
*DATE "Tue Dec 02 18:59:25 2014"
*VENDOR "TAU 2015 Contest"
*PROGRAM "Benchmark Parasitic Generator"
*VERSION "0.0"
*DESIGN_FLOW "NETLIST_TYPE_VERILOG"
*DIVIDER /
*DELIMITER :
*BUS_DELIMITER [ ]
*T_UNIT 1 PS
*C_UNIT 1 FF
*R_UNIT 1 KOHM
*L_UNIT 1 UH

*D_NET TAUNET_4 1.7439
*CONN
*I TAUGATE_54:Z O
*I TAUGATE_4:A I
*CAP
1 TAUGATE_54:Z 0.2611
2 TAUNET_4:1 0.4098
3 TAUNET_4:2 0.5009
4 TAUNET_4:3 0.2843
5 TAUGATE_4:A 0.2878
*RES
2 TAUGATE_54:Z TAUNET_4:1 0.1659
3 TAUNET_4:1 TAUNET_4:2 0.2742
4 TAUNET_4:2 TAUNET_4:3 0.3494
5 TAUNET_4:3 TAUGATE_4:A 0.1485
*END

*D_NET TAUNET_12 1.3760
*CONN
*I TAUGATE_45:Z O
*I TAUGATE_12:A I
*CAP
1 TAUGATE_45:Z 0.2110
2 TAUNET_12:1 0.3070
3 TAUNET_12:2 0.3583
4 TAUNET_12:3 0.1395
5 TAUNET_12:4 0.0646
6 TAUNET_12:5 0.0794
7 TAUGATE_12:A 0.2161
*RES
2 TAUGATE_45:Z TAUNET_12:1 0.1614
3 TAUNET_12:1 TAUNET_12:2 0.3312
4 TAUNET_12:2 TAUNET_12:3 0.3755
5 TAUNET_12:3 TAUNET_12:4 0.4644
6 TAUNET_12:4 TAUNET_12:5 0.4559
7 TAUNET_12:5 TAUGATE_12:A 0.4050
*END

*D_NET nx1 0.4849
*CONN
*I TAUGATE_33:Z O
*I inst_0:A1 I
*CAP
1 TAUGATE_33:Z 0.1670
2 nx1:1 0.2440
3 nx1:2 0.0332
4 inst_0:A1 0.0406
*RES
2 TAUGATE_33:Z nx1:1 0.2732
3 nx1:1 nx1:2 0.0073
4 nx1:2 inst_0:A1 0.1308
*END

*D_NET TAUNET_13 1.8161
*CONN
*I TAUGATE_31:Z O
*I TAUGATE_13:A I
*CAP
1 TAUGATE_31:Z 0.2909
2 TAUNET_13:1 0.0740
3 TAUNET_13:2 0.4871
4 TAUNET_13:3 0.4951
5 TAUNET_13:4 0.4125
6 TAUGATE_13:A 0.0565
*RES
2 TAUGATE_31:Z TAUNET_13:1 0.1285
3 TAUNET_13:1 TAUNET_13:2 0.0292
4 TAUNET_13:2 TAUNET_13:3 0.2926
5 TAUNET_13:3 TAUNET_13:4 0.4507
6 TAUNET_13:4 TAUGATE_13:A 0.3356
*END

*D_NET TAUNET_51 1.9602
*CONN
*I TAUGATE_9:Z O
*I TAUGATE_51:A I
*CAP
1 TAUGATE_9:Z 0.3845
2 TAUNET_51:1 0.3056
3 TAUNET_51:2 0.3464
4 TAUNET_51:3 0.0305
5 TAUNET_51:4 0.2383
6 TAUNET_51:5 0.4020
7 TAUGATE_51:A 0.2529
*RES
2 TAUGATE_9:Z TAUNET_51:1 0.2665
3 TAUNET_51:1 TAUNET_51:2 0.4354
4 TAUNET_51:2 TAUNET_51:3 0.1977
5 TAUNET_51:3 TAUNET_51:4 0.0788
6 TAUNET_51:4 TAUNET_51:5 0.3276
7 TAUNET_51:5 TAUGATE_51:A 0.3833
*END

*D_NET TAUNET_19 0.8670
*CONN
*I TAUGATE_44:Z O
*I TAUGATE_19:A I
*CAP
1 TAUGATE_44:Z 0.0716
2 TAUNET_19:1 0.1922
3 TAUNET_19:2 0.2805
4 TAUNET_19:3 0.1322
5 TAUGATE_19:A 0.1905
*RES
2 TAUGATE_44:Z TAUNET_19:1 0.4017
3 TAUNET_19:1 TAUNET_19:2 0.4680
4 TAUNET_19:2 TAUNET_19:3 0.2976
5 TAUNET_19:3 TAUGATE_19:A 0.2331
*END

*D_NET TAUNET_34 1.3358
*CONN
*I TAUGATE_8:Z O
*I TAUGATE_34:A I
*CAP
1 TAUGATE_8:Z 0.3943
2 TAUNET_34:1 0.1955
3 TAUNET_34:2 0.1868
4 TAUNET_34:3 0.4889
5 TAUGATE_34:A 0.0703
*RES
2 TAUGATE_8:Z TAUNET_34:1 0.3298
3 TAUNET_34:1 TAUNET_34:2 0.4131
4 TAUNET_34:2 TAUNET_34:3 0.3310
5 TAUNET_34:3 TAUGATE_34:A 0.2621
*END

*D_NET TAUNET_54 0.9833
*CONN
*I TAUGATE_19:Z O
*I TAUGATE_54:A I
*CAP
1 TAUGATE_19:Z 0.1808
2 TAUNET_54:1 0.3990
3 TAUGATE_54:A 0.4035
*RES
2 TAUGATE_19:Z TAUNET_54:1 0.0219
3 TAUNET_54:1 TAUGATE_54:A 0.0830
*END

*D_NET nx4 1.6212
*CONN
*I TAUGATE_27:Z O
*I inst_2:A I
*CAP
1 TAUGATE_27:Z 0.1250
2 nx4:1 0.4976
3 nx4:2 0.3591
4 nx4:3 0.2780
5 nx4:4 0.2022
6 inst_2:A 0.1593
*RES
2 TAUGATE_27:Z nx4:1 0.4382
3 nx4:1 nx4:2 0.3498
4 nx4:2 nx4:3 0.4055
5 nx4:3 nx4:4 0.4519
6 nx4:4 inst_2:A 0.4658
*END

*D_NET TAUNET_1 1.1222
*CONN
*I TAUGATE_43:Z O
*I TAUGATE_1:A I
*CAP
1 TAUGATE_43:Z 0.4019
2 TAUNET_1:1 0.2503
3 TAUGATE_1:A 0.4700
*RES
2 TAUGATE_43:Z TAUNET_1:1 0.3789
3 TAUNET_1:1 TAUGATE_1:A 0.3545
*END

*D_NET TAUNET_44 1.0398
*CONN
*I inst_0:ZN O
*I TAUGATE_44:A I
*CAP
1 inst_0:ZN 0.4316
2 TAUNET_44:1 0.4734
3 TAUNET_44:2 0.0376
4 TAUGATE_44:A 0.0972
*RES
2 inst_0:ZN TAUNET_44:1 0.3594
3 TAUNET_44:1 TAUNET_44:2 0.0525
4 TAUNET_44:2 TAUGATE_44:A 0.3248
*END

*D_NET TAUNET_43 1.7532
*CONN
*P nx4 I
*I TAUGATE_43:A I
*CAP
1 nx4 0.1267
2 TAUNET_43:1 0.2434
3 TAUNET_43:2 0.3726
4 TAUNET_43:3 0.2980
5 TAUNET_43:4 0.2454
6 TAUGATE_43:A 0.4670
*RES
2 nx4 TAUNET_43:1 0.1921
3 TAUNET_43:1 TAUNET_43:2 0.1376
4 TAUNET_43:2 TAUNET_43:3 0.4443
5 TAUNET_43:3 TAUNET_43:4 0.1288
6 TAUNET_43:4 TAUGATE_43:A 0.3022
*END

*D_NET TAUNET_35 1.8873
*CONN
*P nx1 I
*I TAUGATE_35:A I
*CAP
1 nx1 0.0668
2 TAUNET_35:1 0.4131
3 TAUNET_35:2 0.4004
4 TAUNET_35:3 0.4814
5 TAUNET_35:4 0.1341
6 TAUGATE_35:A 0.3915
*RES
2 nx1 TAUNET_35:1 0.0282
3 TAUNET_35:1 TAUNET_35:2 0.3089
4 TAUNET_35:2 TAUNET_35:3 0.0253
5 TAUNET_35:3 TAUNET_35:4 0.3105
6 TAUNET_35:4 TAUGATE_35:A 0.1881
*END

*D_NET nx2 1.4805
*CONN
*I TAUGATE_28:Z O
*I inst_0:A2 I
*CAP
1 TAUGATE_28:Z 0.1592
2 nx2:1 0.2761
3 nx2:2 0.3643
4 nx2:3 0.2288
5 nx2:4 0.0666
6 inst_0:A2 0.3854
*RES
2 TAUGATE_28:Z nx2:1 0.3580
3 nx2:1 nx2:2 0.3774
4 nx2:2 nx2:3 0.2731
5 nx2:3 nx2:4 0.1525
6 nx2:4 inst_0:A2 0.0518
*END

*D_NET TAUNET_33 1.2665
*CONN
*I TAUGATE_16:Z O
*I TAUGATE_33:A I
*CAP
1 TAUGATE_16:Z 0.2154
2 TAUNET_33:1 0.1648
3 TAUNET_33:2 0.1855
4 TAUNET_33:3 0.0112
5 TAUNET_33:4 0.3530
6 TAUNET_33:5 0.1128
7 TAUGATE_33:A 0.2239
*RES
2 TAUGATE_16:Z TAUNET_33:1 0.0917
3 TAUNET_33:1 TAUNET_33:2 0.4230
4 TAUNET_33:2 TAUNET_33:3 0.1494
5 TAUNET_33:3 TAUNET_33:4 0.3290
6 TAUNET_33:4 TAUNET_33:5 0.1620
7 TAUNET_33:5 TAUGATE_33:A 0.0029
*END

*D_NET TAUNET_11 1.0297
*CONN
*I TAUGATE_32:Z O
*I TAUGATE_11:A I
*CAP
1 TAUGATE_32:Z 0.1903
2 TAUNET_11:1 0.3484
3 TAUNET_11:2 0.0801
4 TAUNET_11:3 0.1392
5 TAUNET_11:4 0.1891
6 TAUNET_11:5 0.0464
7 TAUGATE_11:A 0.0364
*RES
2 TAUGATE_32:Z TAUNET_11:1 0.0279
3 TAUNET_11:1 TAUNET_11:2 0.4104
4 TAUNET_11:2 TAUNET_11:3 0.0649
5 TAUNET_11:3 TAUNET_11:4 0.0510
6 TAUNET_11:4 TAUNET_11:5 0.1600
7 TAUNET_11:5 TAUGATE_11:A 0.1748
*END

*D_NET TAUNET_41 1.6599
*CONN
*P nx2 I
*I TAUGATE_41:A I
*CAP
1 nx2 0.1076
2 TAUNET_41:1 0.3388
3 TAUNET_41:2 0.4657
4 TAUNET_41:3 0.3595
5 TAUNET_41:4 0.2471
6 TAUNET_41:5 0.0832
7 TAUGATE_41:A 0.0580
*RES
2 nx2 TAUNET_41:1 0.3736
3 TAUNET_41:1 TAUNET_41:2 0.0395
4 TAUNET_41:2 TAUNET_41:3 0.3644
5 TAUNET_41:3 TAUNET_41:4 0.0829
6 TAUNET_41:4 TAUNET_41:5 0.1977
7 TAUNET_41:5 TAUGATE_41:A 0.4694
*END

*D_NET TAUNET_22 2.0853
*CONN
*I TAUGATE_30:Z O
*I TAUGATE_22:A I
*CAP
1 TAUGATE_30:Z 0.3882
2 TAUNET_22:1 0.0413
3 TAUNET_22:2 0.4651
4 TAUNET_22:3 0.4065
5 TAUNET_22:4 0.3164
6 TAUNET_22:5 0.3513
7 TAUGATE_22:A 0.1165
*RES
2 TAUGATE_30:Z TAUNET_22:1 0.0986
3 TAUNET_22:1 TAUNET_22:2 0.2243
4 TAUNET_22:2 TAUNET_22:3 0.1286
5 TAUNET_22:3 TAUNET_22:4 0.4269
6 TAUNET_22:4 TAUNET_22:5 0.2482
7 TAUNET_22:5 TAUGATE_22:A 0.2195
*END

*D_NET TAUNET_30 1.7569
*CONN
*I TAUGATE_7:Z O
*I TAUGATE_30:A I
*CAP
1 TAUGATE_7:Z 0.4091
2 TAUNET_30:1 0.3587
3 TAUNET_30:2 0.1869
4 TAUNET_30:3 0.4974
5 TAUGATE_30:A 0.3047
*RES
2 TAUGATE_7:Z TAUNET_30:1 0.1200
3 TAUNET_30:1 TAUNET_30:2 0.4969
4 TAUNET_30:2 TAUNET_30:3 0.1210
5 TAUNET_30:3 TAUGATE_30:A 0.1733
*END

*D_NET TAUNET_5 1.1896
*CONN
*I TAUGATE_52:Z O
*I TAUGATE_5:A I
*CAP
1 TAUGATE_52:Z 0.0283
2 TAUNET_5:1 0.2945
3 TAUNET_5:2 0.3177
4 TAUNET_5:3 0.2101
5 TAUGATE_5:A 0.3390
*RES
2 TAUGATE_52:Z TAUNET_5:1 0.2046
3 TAUNET_5:1 TAUNET_5:2 0.3404
4 TAUNET_5:2 TAUNET_5:3 0.1317
5 TAUNET_5:3 TAUGATE_5:A 0.3617
*END

*D_NET TAUNET_46 1.2055
*CONN
*I TAUGATE_24:Z O
*I TAUGATE_46:A I
*CAP
1 TAUGATE_24:Z 0.3629
2 TAUNET_46:1 0.3900
3 TAUNET_46:2 0.0557
4 TAUNET_46:3 0.1253
5 TAUGATE_46:A 0.2716
*RES
2 TAUGATE_24:Z TAUNET_46:1 0.3735
3 TAUNET_46:1 TAUNET_46:2 0.1079
4 TAUNET_46:2 TAUNET_46:3 0.3323
5 TAUNET_46:3 TAUGATE_46:A 0.2907
*END

*D_NET TAUNET_24 1.4383
*CONN
*I TAUGATE_49:Z O
*I TAUGATE_24:A I
*CAP
1 TAUGATE_49:Z 0.4966
2 TAUNET_24:1 0.2702
3 TAUNET_24:2 0.2135
4 TAUNET_24:3 0.0419
5 TAUNET_24:4 0.2773
6 TAUNET_24:5 0.0903
7 TAUGATE_24:A 0.0485
*RES
2 TAUGATE_49:Z TAUNET_24:1 0.4602
3 TAUNET_24:1 TAUNET_24:2 0.4262
4 TAUNET_24:2 TAUNET_24:3 0.2009
5 TAUNET_24:3 TAUNET_24:4 0.3114
6 TAUNET_24:4 TAUNET_24:5 0.3090
7 TAUNET_24:5 TAUGATE_24:A 0.3972
*END

*D_NET TAUNET_16 1.1430
*CONN
*I TAUGATE_51:Z O
*I TAUGATE_16:A I
*CAP
1 TAUGATE_51:Z 0.2443
2 TAUNET_16:1 0.3734
3 TAUNET_16:2 0.1567
4 TAUNET_16:3 0.1247
5 TAUGATE_16:A 0.2439
*RES
2 TAUGATE_51:Z TAUNET_16:1 0.2588
3 TAUNET_16:1 TAUNET_16:2 0.4474
4 TAUNET_16:2 TAUNET_16:3 0.3528
5 TAUNET_16:3 TAUGATE_16:A 0.0472
*END

*D_NET TAUNET_52 1.3929
*CONN
*I TAUGATE_23:Z O
*I TAUGATE_52:A I
*CAP
1 TAUGATE_23:Z 0.1981
2 TAUNET_52:1 0.0169
3 TAUNET_52:2 0.4026
4 TAUNET_52:3 0.4684
5 TAUNET_52:4 0.2490
6 TAUGATE_52:A 0.0579
*RES
2 TAUGATE_23:Z TAUNET_52:1 0.0423
3 TAUNET_52:1 TAUNET_52:2 0.2861
4 TAUNET_52:2 TAUNET_52:3 0.4278
5 TAUNET_52:3 TAUNET_52:4 0.3875
6 TAUNET_52:4 TAUGATE_52:A 0.4796
*END

*D_NET TAUNET_31 1.0064
*CONN
*I inst_2:Z O
*I TAUGATE_31:A I
*CAP
1 inst_2:Z 0.1554
2 TAUNET_31:1 0.4380
3 TAUGATE_31:A 0.4130
*RES
2 inst_2:Z TAUNET_31:1 0.4990
3 TAUNET_31:1 TAUGATE_31:A 0.2134
*END

*D_NET TAUNET_25 2.0765
*CONN
*I inst_1:ZN O
*I TAUGATE_25:A I
*CAP
1 inst_1:ZN 0.4947
2 TAUNET_25:1 0.2854
3 TAUNET_25:2 0.4464
4 TAUNET_25:3 0.2438
5 TAUNET_25:4 0.2969
6 TAUGATE_25:A 0.3091
*RES
2 inst_1:ZN TAUNET_25:1 0.5006
3 TAUNET_25:1 TAUNET_25:2 0.2264
4 TAUNET_25:2 TAUNET_25:3 0.3973
5 TAUNET_25:3 TAUNET_25:4 0.2044
6 TAUNET_25:4 TAUGATE_25:A 0.1531
*END

*D_NET TAUNET_7 1.2691
*CONN
*I TAUGATE_46:Z O
*I TAUGATE_7:A I
*CAP
1 TAUGATE_46:Z 0.2618
2 TAUNET_7:1 0.4002
3 TAUNET_7:2 0.3652
4 TAUNET_7:3 0.1857
5 TAUGATE_7:A 0.0562
*RES
2 TAUGATE_46:Z TAUNET_7:1 0.0882
3 TAUNET_7:1 TAUNET_7:2 0.4386
4 TAUNET_7:2 TAUNET_7:3 0.2715
5 TAUNET_7:3 TAUGATE_7:A 0.0199
*END

*D_NET TAUNET_27 0.5520
*CONN
*I TAUGATE_22:Z O
*I TAUGATE_27:A I
*CAP
1 TAUGATE_22:Z 0.1459
2 TAUNET_27:1 0.1026
3 TAUNET_27:2 0.1939
4 TAUGATE_27:A 0.1095
*RES
2 TAUGATE_22:Z TAUNET_27:1 0.0212
3 TAUNET_27:1 TAUNET_27:2 0.1417
4 TAUNET_27:2 TAUGATE_27:A 0.2190
*END

*D_NET TAUNET_48 1.5644
*CONN
*I TAUGATE_21:Z O
*I TAUGATE_48:A I
*CAP
1 TAUGATE_21:Z 0.1138
2 TAUNET_48:1 0.3663
3 TAUNET_48:2 0.2540
4 TAUNET_48:3 0.0526
5 TAUNET_48:4 0.2388
6 TAUNET_48:5 0.1787
7 TAUGATE_48:A 0.3603
*RES
2 TAUGATE_21:Z TAUNET_48:1 0.0603
3 TAUNET_48:1 TAUNET_48:2 0.0863
4 TAUNET_48:2 TAUNET_48:3 0.3102
5 TAUNET_48:3 TAUNET_48:4 0.1239
6 TAUNET_48:4 TAUNET_48:5 0.2473
7 TAUNET_48:5 TAUGATE_48:A 0.0055
*END

*D_NET TAUNET_28 1.2459
*CONN
*I TAUGATE_18:Z O
*I TAUGATE_28:A I
*CAP
1 TAUGATE_18:Z 0.2412
2 TAUNET_28:1 0.4441
3 TAUNET_28:2 0.4218
4 TAUNET_28:3 0.0848
5 TAUNET_28:4 0.0266
6 TAUGATE_28:A 0.0274
*RES
2 TAUGATE_18:Z TAUNET_28:1 0.4218
3 TAUNET_28:1 TAUNET_28:2 0.2061
4 TAUNET_28:2 TAUNET_28:3 0.2110
5 TAUNET_28:3 TAUNET_28:4 0.4583
6 TAUNET_28:4 TAUGATE_28:A 0.3985
*END

*D_NET TAUNET_42 1.9898
*CONN
*I TAUGATE_10:Z O
*I TAUGATE_42:A I
*CAP
1 TAUGATE_10:Z 0.0725
2 TAUNET_42:1 0.3124
3 TAUNET_42:2 0.3685
4 TAUNET_42:3 0.4317
5 TAUNET_42:4 0.1801
6 TAUNET_42:5 0.2826
7 TAUGATE_42:A 0.3420
*RES
2 TAUGATE_10:Z TAUNET_42:1 0.0965
3 TAUNET_42:1 TAUNET_42:2 0.2555
4 TAUNET_42:2 TAUNET_42:3 0.1304
5 TAUNET_42:3 TAUNET_42:4 0.3675
6 TAUNET_42:4 TAUNET_42:5 0.4634
7 TAUNET_42:5 TAUGATE_42:A 0.2869
*END

*D_NET TAUNET_9 0.5511
*CONN
*I TAUGATE_48:Z O
*I TAUGATE_9:A I
*CAP
1 TAUGATE_48:Z 0.1182
2 TAUNET_9:1 0.0608
3 TAUGATE_9:A 0.3721
*RES
2 TAUGATE_48:Z TAUNET_9:1 0.4648
3 TAUNET_9:1 TAUGATE_9:A 0.2376
*END

*D_NET TAUNET_18 0.8353
*CONN
*I TAUGATE_36:Z O
*I TAUGATE_18:A I
*CAP
1 TAUGATE_36:Z 0.3081
2 TAUNET_18:1 0.0264
3 TAUNET_18:2 0.2502
4 TAUGATE_18:A 0.2506
*RES
2 TAUGATE_36:Z TAUNET_18:1 0.4486
3 TAUNET_18:1 TAUNET_18:2 0.0641
4 TAUNET_18:2 TAUGATE_18:A 0.0138
*END

*D_NET TAUNET_45 0.7959
*CONN
*I TAUGATE_1:Z O
*I TAUGATE_45:A I
*CAP
1 TAUGATE_1:Z 0.0204
2 TAUNET_45:1 0.1001
3 TAUNET_45:2 0.2747
4 TAUNET_45:3 0.1704
5 TAUGATE_45:A 0.2303
*RES
2 TAUGATE_1:Z TAUNET_45:1 0.0121
3 TAUNET_45:1 TAUNET_45:2 0.0620
4 TAUNET_45:2 TAUNET_45:3 0.0267
5 TAUNET_45:3 TAUGATE_45:A 0.1278
*END

*D_NET TAUNET_21 1.5058
*CONN
*I TAUGATE_29:Z O
*I TAUGATE_21:A I
*CAP
1 TAUGATE_29:Z 0.3621
2 TAUNET_21:1 0.3490
3 TAUNET_21:2 0.4751
4 TAUGATE_21:A 0.3195
*RES
2 TAUGATE_29:Z TAUNET_21:1 0.4748
3 TAUNET_21:1 TAUNET_21:2 0.2505
4 TAUNET_21:2 TAUGATE_21:A 0.2036
*END

*D_NET TAUNET_3 1.2849
*CONN
*I TAUGATE_38:Z O
*I TAUGATE_3:A I
*CAP
1 TAUGATE_38:Z 0.0185
2 TAUNET_3:1 0.2437
3 TAUNET_3:2 0.3641
4 TAUNET_3:3 0.1411
5 TAUNET_3:4 0.2452
6 TAUGATE_3:A 0.2723
*RES
2 TAUGATE_38:Z TAUNET_3:1 0.2079
3 TAUNET_3:1 TAUNET_3:2 0.2449
4 TAUNET_3:2 TAUNET_3:3 0.0406
5 TAUNET_3:3 TAUNET_3:4 0.0917
6 TAUNET_3:4 TAUGATE_3:A 0.0078
*END

*D_NET TAUNET_32 0.3723
*CONN
*I TAUGATE_4:Z O
*I TAUGATE_32:A I
*CAP
1 TAUGATE_4:Z 0.0264
2 TAUNET_32:1 0.1906
3 TAUGATE_32:A 0.1553
*RES
2 TAUGATE_4:Z TAUNET_32:1 0.0937
3 TAUNET_32:1 TAUGATE_32:A 0.2944
*END

*D_NET TAUNET_37 0.9828
*CONN
*I TAUGATE_12:Z O
*I TAUGATE_37:A I
*CAP
1 TAUGATE_12:Z 0.0209
2 TAUNET_37:1 0.1067
3 TAUNET_37:2 0.4881
4 TAUGATE_37:A 0.3672
*RES
2 TAUGATE_12:Z TAUNET_37:1 0.4629
3 TAUNET_37:1 TAUNET_37:2 0.1157
4 TAUNET_37:2 TAUGATE_37:A 0.1901
*END

*D_NET TAUNET_38 1.4760
*CONN
*I TAUGATE_14:Z O
*I TAUGATE_38:A I
*CAP
1 TAUGATE_14:Z 0.5008
2 TAUNET_38:1 0.3428
3 TAUNET_38:2 0.2325
4 TAUNET_38:3 0.2733
5 TAUGATE_38:A 0.1266
*RES
2 TAUGATE_14:Z TAUNET_38:1 0.3814
3 TAUNET_38:1 TAUNET_38:2 0.1363
4 TAUNET_38:2 TAUNET_38:3 0.3277
5 TAUNET_38:3 TAUGATE_38:A 0.3144
*END

*D_NET TAUNET_29 1.3785
*CONN
*I TAUGATE_3:Z O
*I TAUGATE_29:A I
*CAP
1 TAUGATE_3:Z 0.3676
2 TAUNET_29:1 0.4423
3 TAUNET_29:2 0.1159
4 TAUGATE_29:A 0.4527
*RES
2 TAUGATE_3:Z TAUNET_29:1 0.1465
3 TAUNET_29:1 TAUNET_29:2 0.1463
4 TAUNET_29:2 TAUGATE_29:A 0.4621
*END

*D_NET TAUNET_20 0.8463
*CONN
*I TAUGATE_25:Z O
*I TAUGATE_20:A I
*CAP
1 TAUGATE_25:Z 0.0227
2 TAUNET_20:1 0.4114
3 TAUNET_20:2 0.0715
4 TAUNET_20:3 0.1546
5 TAUGATE_20:A 0.1861
*RES
2 TAUGATE_25:Z TAUNET_20:1 0.4367
3 TAUNET_20:1 TAUNET_20:2 0.3452
4 TAUNET_20:2 TAUNET_20:3 0.0313
5 TAUNET_20:3 TAUGATE_20:A 0.1217
*END

*D_NET TAUNET_15 0.7321
*CONN
*I TAUGATE_39:Z O
*I TAUGATE_15:A I
*CAP
1 TAUGATE_39:Z 0.1222
2 TAUNET_15:1 0.1692
3 TAUGATE_15:A 0.4407
*RES
2 TAUGATE_39:Z TAUNET_15:1 0.4978
3 TAUNET_15:1 TAUGATE_15:A 0.2563
*END

*D_NET TAUNET_40 1.2175
*CONN
*I TAUGATE_15:Z O
*I TAUGATE_40:A I
*CAP
1 TAUGATE_15:Z 0.2603
2 TAUNET_40:1 0.3072
3 TAUNET_40:2 0.2768
4 TAUNET_40:3 0.1679
5 TAUGATE_40:A 0.2053
*RES
2 TAUGATE_15:Z TAUNET_40:1 0.2140
3 TAUNET_40:1 TAUNET_40:2 0.3306
4 TAUNET_40:2 TAUNET_40:3 0.1569
5 TAUNET_40:3 TAUGATE_40:A 0.2580
*END

*D_NET nx44 2.4397
*CONN
*I TAUGATE_53:Z O
*P nx44 O
*CAP
1 TAUGATE_53:Z 0.4796
2 nx44:1 0.4946
3 nx44:2 0.4608
4 nx44:3 0.4692
5 nx44:4 0.4766
6 nx44 0.0589
*RES
2 TAUGATE_53:Z nx44:1 0.0962
3 nx44:1 nx44:2 0.2415
4 nx44:2 nx44:3 0.1750
5 nx44:3 nx44:4 0.4103
6 nx44:4 nx44 0.0845
*END

*D_NET nx12 0.7397
*CONN
*I TAUGATE_42:Z O
*P nx12 O
*CAP
1 TAUGATE_42:Z 0.1436
2 nx12:1 0.4748
3 nx12:2 0.0806
4 nx12 0.0407
*RES
2 TAUGATE_42:Z nx12:1 0.2069
3 nx12:1 nx12:2 0.0491
4 nx12:2 nx12 0.4137
*END

*D_NET TAUNET_10 1.2657
*CONN
*I TAUGATE_50:Z O
*I TAUGATE_10:A I
*CAP
1 TAUGATE_50:Z 0.2987
2 TAUNET_10:1 0.1831
3 TAUNET_10:2 0.4110
4 TAUNET_10:3 0.0191
5 TAUGATE_10:A 0.3538
*RES
2 TAUGATE_50:Z TAUNET_10:1 0.4300
3 TAUNET_10:1 TAUNET_10:2 0.3629
4 TAUNET_10:2 TAUNET_10:3 0.0787
5 TAUNET_10:3 TAUGATE_10:A 0.2007
*END

*D_NET TAUNET_17 2.1629
*CONN
*I TAUGATE_34:Z O
*I TAUGATE_17:A I
*CAP
1 TAUGATE_34:Z 0.4025
2 TAUNET_17:1 0.3538
3 TAUNET_17:2 0.4649
4 TAUNET_17:3 0.0482
5 TAUNET_17:4 0.1062
6 TAUNET_17:5 0.2963
7 TAUGATE_17:A 0.4911
*RES
2 TAUGATE_34:Z TAUNET_17:1 0.2002
3 TAUNET_17:1 TAUNET_17:2 0.2573
4 TAUNET_17:2 TAUNET_17:3 0.3761
5 TAUNET_17:3 TAUNET_17:4 0.0616
6 TAUNET_17:4 TAUNET_17:5 0.4298
7 TAUNET_17:5 TAUGATE_17:A 0.2857
*END

*D_NET TAUNET_14 0.6543
*CONN
*I TAUGATE_35:Z O
*I TAUGATE_14:A I
*CAP
1 TAUGATE_35:Z 0.0470
2 TAUNET_14:1 0.1738
3 TAUGATE_14:A 0.4336
*RES
2 TAUGATE_35:Z TAUNET_14:1 0.4556
3 TAUNET_14:1 TAUGATE_14:A 0.1284
*END

*D_NET nx3 1.6488
*CONN
*I TAUGATE_40:Z O
*I inst_1:A I
*CAP
1 TAUGATE_40:Z 0.1731
2 nx3:1 0.3095
3 nx3:2 0.4895
4 nx3:3 0.4033
5 inst_1:A 0.2734
*RES
2 TAUGATE_40:Z nx3:1 0.3461
3 nx3:1 nx3:2 0.3729
4 nx3:2 nx3:3 0.0418
5 nx3:3 inst_1:A 0.3671
*END

*D_NET TAUNET_36 1.1766
*CONN
*I TAUGATE_5:Z O
*I TAUGATE_36:A I
*CAP
1 TAUGATE_5:Z 0.1458
2 TAUNET_36:1 0.0683
3 TAUNET_36:2 0.2135
4 TAUNET_36:3 0.4484
5 TAUNET_36:4 0.1379
6 TAUNET_36:5 0.1139
7 TAUGATE_36:A 0.0489
*RES
2 TAUGATE_5:Z TAUNET_36:1 0.0861
3 TAUNET_36:1 TAUNET_36:2 0.1477
4 TAUNET_36:2 TAUNET_36:3 0.4806
5 TAUNET_36:3 TAUNET_36:4 0.3473
6 TAUNET_36:4 TAUNET_36:5 0.1114
7 TAUNET_36:5 TAUGATE_36:A 0.0198
*END

*D_NET TAUNET_53 1.3546
*CONN
*I TAUGATE_13:Z O
*I TAUGATE_53:A I
*CAP
1 TAUGATE_13:Z 0.1100
2 TAUNET_53:1 0.3290
3 TAUNET_53:2 0.1592
4 TAUNET_53:3 0.4236
5 TAUGATE_53:A 0.3328
*RES
2 TAUGATE_13:Z TAUNET_53:1 0.1906
3 TAUNET_53:1 TAUNET_53:2 0.5003
4 TAUNET_53:2 TAUNET_53:3 0.4347
5 TAUNET_53:3 TAUGATE_53:A 0.3044
*END

*D_NET TAUNET_49 1.5228
*CONN
*I TAUGATE_2:Z O
*I TAUGATE_49:A I
*CAP
1 TAUGATE_2:Z 0.0096
2 TAUNET_49:1 0.2377
3 TAUNET_49:2 0.2571
4 TAUNET_49:3 0.3610
5 TAUNET_49:4 0.0042
6 TAUNET_49:5 0.2690
7 TAUGATE_49:A 0.3841
*RES
2 TAUGATE_2:Z TAUNET_49:1 0.3400
3 TAUNET_49:1 TAUNET_49:2 0.2352
4 TAUNET_49:2 TAUNET_49:3 0.3112
5 TAUNET_49:3 TAUNET_49:4 0.1345
6 TAUNET_49:4 TAUNET_49:5 0.4134
7 TAUNET_49:5 TAUGATE_49:A 0.0741
*END

*D_NET TAUNET_8 0.9047
*CONN
*I TAUGATE_26:Z O
*I TAUGATE_8:A I
*CAP
1 TAUGATE_26:Z 0.4891
2 TAUNET_8:1 0.2122
3 TAUGATE_8:A 0.2034
*RES
2 TAUGATE_26:Z TAUNET_8:1 0.1253
3 TAUNET_8:1 TAUGATE_8:A 0.2112
*END

*D_NET TAUNET_26 0.7145
*CONN
*I TAUGATE_20:Z O
*I TAUGATE_26:A I
*CAP
1 TAUGATE_20:Z 0.1106
2 TAUNET_26:1 0.2644
3 TAUGATE_26:A 0.3395
*RES
2 TAUGATE_20:Z TAUNET_26:1 0.4160
3 TAUNET_26:1 TAUGATE_26:A 0.1311
*END

*D_NET TAUNET_2 0.5652
*CONN
*I TAUGATE_37:Z O
*I TAUGATE_2:A I
*CAP
1 TAUGATE_37:Z 0.0535
2 TAUNET_2:1 0.2939
3 TAUGATE_2:A 0.2177
*RES
2 TAUGATE_37:Z TAUNET_2:1 0.0520
3 TAUNET_2:1 TAUGATE_2:A 0.1787
*END

*D_NET TAUNET_47 1.2588
*CONN
*I TAUGATE_11:Z O
*I TAUGATE_47:A I
*CAP
1 TAUGATE_11:Z 0.2308
2 TAUNET_47:1 0.4154
3 TAUNET_47:2 0.4205
4 TAUGATE_47:A 0.1921
*RES
2 TAUGATE_11:Z TAUNET_47:1 0.3303
3 TAUNET_47:1 TAUNET_47:2 0.0500
4 TAUNET_47:2 TAUGATE_47:A 0.3450
*END

*D_NET TAUNET_50 1.3816
*CONN
*I TAUGATE_6:Z O
*I TAUGATE_50:A I
*CAP
1 TAUGATE_6:Z 0.2397
2 TAUNET_50:1 0.0450
3 TAUNET_50:2 0.3586
4 TAUNET_50:3 0.1804
5 TAUNET_50:4 0.2132
6 TAUGATE_50:A 0.3448
*RES
2 TAUGATE_6:Z TAUNET_50:1 0.2539
3 TAUNET_50:1 TAUNET_50:2 0.0169
4 TAUNET_50:2 TAUNET_50:3 0.2910
5 TAUNET_50:3 TAUNET_50:4 0.3418
6 TAUNET_50:4 TAUGATE_50:A 0.0277
*END

*D_NET TAUNET_6 0.7138
*CONN
*I TAUGATE_47:Z O
*I TAUGATE_6:A I
*CAP
1 TAUGATE_47:Z 0.0700
2 TAUNET_6:1 0.4916
3 TAUNET_6:2 0.0258
4 TAUNET_6:3 0.0722
5 TAUNET_6:4 0.0268
6 TAUGATE_6:A 0.0274
*RES
2 TAUGATE_47:Z TAUNET_6:1 0.0955
3 TAUNET_6:1 TAUNET_6:2 0.0758
4 TAUNET_6:2 TAUNET_6:3 0.0730
5 TAUNET_6:3 TAUNET_6:4 0.2996
6 TAUNET_6:4 TAUGATE_6:A 0.1500
*END

*D_NET TAUNET_23 1.1459
*CONN
*I TAUGATE_41:Z O
*I TAUGATE_23:A I
*CAP
1 TAUGATE_41:Z 0.0605
2 TAUNET_23:1 0.4347
3 TAUNET_23:2 0.2976
4 TAUGATE_23:A 0.3531
*RES
2 TAUGATE_41:Z TAUNET_23:1 0.0316
3 TAUNET_23:1 TAUNET_23:2 0.1823
4 TAUNET_23:2 TAUGATE_23:A 0.0755
*END

*D_NET TAUNET_39 1.1637
*CONN
*P nx3 I
*I TAUGATE_39:A I
*CAP
1 nx3 0.3515
2 TAUNET_39:1 0.4269
3 TAUNET_39:2 0.0493
4 TAUNET_39:3 0.0341
5 TAUGATE_39:A 0.3020
*RES
2 nx3 TAUNET_39:1 0.3389
3 TAUNET_39:1 TAUNET_39:2 0.4000
4 TAUNET_39:2 TAUNET_39:3 0.0188
5 TAUNET_39:3 TAUGATE_39:A 0.4709
*END

