*SPEF "IEEE 1481-1998"
*DESIGN "changes"
*DATE "Tue Dec 02 18:59:25 2014"
*VENDOR "TAU 2015 Contest"
*PROGRAM "Benchmark Parasitic Generator"
*VERSION "0.0"
*DESIGN_FLOW "NETLIST_TYPE_VERILOG"
*DIVIDER /
*DELIMITER :
*BUS_DELIMITER [ ]
*T_UNIT 1 PS
*C_UNIT 1 FF
*R_UNIT 1 KOHM
*L_UNIT 1 UH

*D_NET nx1 1.7439
*CONN
*I TAUGATE_9:Z O
*I inst_0:A1 I
*CAP
1 TAUGATE_9:Z 0.2611
2 nx1:1 0.4098
3 nx1:2 0.5009
4 nx1:3 0.2843
5 inst_0:A1 0.2878
*RES
2 TAUGATE_9:Z nx1:1 0.1659
3 nx1:1 nx1:2 0.2742
4 nx1:2 nx1:3 0.3494
5 nx1:3 inst_0:A1 0.1485
*END

*D_NET TAUNET_9 1.3760
*CONN
*I TAUGATE_3:Z O
*I TAUGATE_9:A I
*CAP
1 TAUGATE_3:Z 0.2110
2 TAUNET_9:1 0.3070
3 TAUNET_9:2 0.3583
4 TAUNET_9:3 0.1395
5 TAUNET_9:4 0.0646
6 TAUNET_9:5 0.0794
7 TAUGATE_9:A 0.2161
*RES
2 TAUGATE_3:Z TAUNET_9:1 0.1614
3 TAUNET_9:1 TAUNET_9:2 0.3312
4 TAUNET_9:2 TAUNET_9:3 0.3755
5 TAUNET_9:3 TAUNET_9:4 0.4644
6 TAUNET_9:4 TAUNET_9:5 0.4559
7 TAUNET_9:5 TAUGATE_9:A 0.4050
*END

*D_NET TAUNET_5 0.4849
*CONN
*P nx2 I
*I TAUGATE_5:A I
*CAP
1 nx2 0.1670
2 TAUNET_5:1 0.2440
3 TAUNET_5:2 0.0332
4 TAUGATE_5:A 0.0406
*RES
2 nx2 TAUNET_5:1 0.2732
3 TAUNET_5:1 TAUNET_5:2 0.0073
4 TAUNET_5:2 TAUGATE_5:A 0.1308
*END

*D_NET TAUNET_8 1.8161
*CONN
*I inst_1:ZN O
*I TAUGATE_8:A I
*CAP
1 inst_1:ZN 0.2909
2 TAUNET_8:1 0.0740
3 TAUNET_8:2 0.4871
4 TAUNET_8:3 0.4951
5 TAUNET_8:4 0.4125
6 TAUGATE_8:A 0.0565
*RES
2 inst_1:ZN TAUNET_8:1 0.1285
3 TAUNET_8:1 TAUNET_8:2 0.0292
4 TAUNET_8:2 TAUNET_8:3 0.2926
5 TAUNET_8:3 TAUNET_8:4 0.4507
6 TAUNET_8:4 TAUGATE_8:A 0.3356
*END

*D_NET nx4 1.9602
*CONN
*I TAUGATE_7:Z O
*I inst_2:A I
*CAP
1 TAUGATE_7:Z 0.3845
2 nx4:1 0.3056
3 nx4:2 0.3464
4 nx4:3 0.0305
5 nx4:4 0.2383
6 nx4:5 0.4020
7 inst_2:A 0.2529
*RES
2 TAUGATE_7:Z nx4:1 0.2665
3 nx4:1 nx4:2 0.4354
4 nx4:2 nx4:3 0.1977
5 nx4:3 nx4:4 0.0788
6 nx4:4 nx4:5 0.3276
7 nx4:5 inst_2:A 0.3833
*END

*D_NET TAUNET_6 0.8670
*CONN
*I TAUGATE_4:Z O
*I TAUGATE_6:A I
*CAP
1 TAUGATE_4:Z 0.0716
2 TAUNET_6:1 0.1922
3 TAUNET_6:2 0.2805
4 TAUNET_6:3 0.1322
5 TAUGATE_6:A 0.1905
*RES
2 TAUGATE_4:Z TAUNET_6:1 0.4017
3 TAUNET_6:1 TAUNET_6:2 0.4680
4 TAUNET_6:2 TAUNET_6:3 0.2976
5 TAUNET_6:3 TAUGATE_6:A 0.2331
*END

*D_NET nx33 1.3358
*CONN
*I TAUGATE_8:Z O
*P nx33 O
*CAP
1 TAUGATE_8:Z 0.3943
2 nx33:1 0.1955
3 nx33:2 0.1868
4 nx33:3 0.4889
5 nx33 0.0703
*RES
2 TAUGATE_8:Z nx33:1 0.3298
3 nx33:1 nx33:2 0.4131
4 nx33:2 nx33:3 0.3310
5 nx33:3 nx33 0.2621
*END

*D_NET nx2 0.9833
*CONN
*I TAUGATE_5:Z O
*I inst_0:A2 I
*CAP
1 TAUGATE_5:Z 0.1808
2 nx2:1 0.3990
3 inst_0:A2 0.4035
*RES
2 TAUGATE_5:Z nx2:1 0.0219
3 nx2:1 inst_0:A2 0.0830
*END

*D_NET nx12 1.6212
*CONN
*I TAUGATE_6:Z O
*P nx12 O
*CAP
1 TAUGATE_6:Z 0.1250
2 nx12:1 0.4976
3 nx12:2 0.3591
4 nx12:3 0.2780
5 nx12:4 0.2022
6 nx12 0.1593
*RES
2 TAUGATE_6:Z nx12:1 0.4382
3 nx12:1 nx12:2 0.3498
4 nx12:2 nx12:3 0.4055
5 nx12:3 nx12:4 0.4519
6 nx12:4 nx12 0.4658
*END

*D_NET TAUNET_7 1.1222
*CONN
*I TAUGATE_2:Z O
*I TAUGATE_7:A I
*CAP
1 TAUGATE_2:Z 0.4019
2 TAUNET_7:1 0.2503
3 TAUGATE_7:A 0.4700
*RES
2 TAUGATE_2:Z TAUNET_7:1 0.3789
3 TAUNET_7:1 TAUGATE_7:A 0.3545
*END

