*SPEF "IEEE 1481-1998"
*DESIGN "changes"
*DATE "Tue Dec 02 18:59:25 2014"
*VENDOR "TAU 2015 Contest"
*PROGRAM "Benchmark Parasitic Generator"
*VERSION "0.0"
*DESIGN_FLOW "NETLIST_TYPE_VERILOG"
*DIVIDER /
*DELIMITER :
*BUS_DELIMITER [ ]
*T_UNIT 1 PS
*C_UNIT 1 FF
*R_UNIT 1 KOHM
*L_UNIT 1 UH

*D_NET nx33 1.7439
*CONN
*I TAUGATE_34:Z O
*P nx33 O
*CAP
1 TAUGATE_34:Z 0.2611
2 nx33:1 0.4098
3 nx33:2 0.5009
4 nx33:3 0.2843
5 nx33 0.2878
*RES
2 TAUGATE_34:Z nx33:1 0.1659
3 nx33:1 nx33:2 0.2742
4 nx33:2 nx33:3 0.3494
5 nx33:3 nx33 0.1485
*END

*D_NET TAUNET_20 1.3760
*CONN
*I inst_1:ZN O
*I TAUGATE_20:A I
*CAP
1 inst_1:ZN 0.2110
2 TAUNET_20:1 0.3070
3 TAUNET_20:2 0.3583
4 TAUNET_20:3 0.1395
5 TAUNET_20:4 0.0646
6 TAUNET_20:5 0.0794
7 TAUGATE_20:A 0.2161
*RES
2 inst_1:ZN TAUNET_20:1 0.1614
3 TAUNET_20:1 TAUNET_20:2 0.3312
4 TAUNET_20:2 TAUNET_20:3 0.3755
5 TAUNET_20:3 TAUNET_20:4 0.4644
6 TAUNET_20:4 TAUNET_20:5 0.4559
7 TAUNET_20:5 TAUGATE_20:A 0.4050
*END

*D_NET TAUNET_21 0.4849
*CONN
*I TAUGATE_3:Z O
*I TAUGATE_21:A I
*CAP
1 TAUGATE_3:Z 0.1670
2 TAUNET_21:1 0.2440
3 TAUNET_21:2 0.0332
4 TAUGATE_21:A 0.0406
*RES
2 TAUGATE_3:Z TAUNET_21:1 0.2732
3 TAUNET_21:1 TAUNET_21:2 0.0073
4 TAUNET_21:2 TAUGATE_21:A 0.1308
*END

*D_NET TAUNET_49 1.8161
*CONN
*I TAUGATE_37:Z O
*I TAUGATE_49:A I
*CAP
1 TAUGATE_37:Z 0.2909
2 TAUNET_49:1 0.0740
3 TAUNET_49:2 0.4871
4 TAUNET_49:3 0.4951
5 TAUNET_49:4 0.4125
6 TAUGATE_49:A 0.0565
*RES
2 TAUGATE_37:Z TAUNET_49:1 0.1285
3 TAUNET_49:1 TAUNET_49:2 0.0292
4 TAUNET_49:2 TAUNET_49:3 0.2926
5 TAUNET_49:3 TAUNET_49:4 0.4507
6 TAUNET_49:4 TAUGATE_49:A 0.3356
*END

*D_NET TAUNET_38 1.9602
*CONN
*I TAUGATE_35:Z O
*I TAUGATE_38:A I
*CAP
1 TAUGATE_35:Z 0.3845
2 TAUNET_38:1 0.3056
3 TAUNET_38:2 0.3464
4 TAUNET_38:3 0.0305
5 TAUNET_38:4 0.2383
6 TAUNET_38:5 0.4020
7 TAUGATE_38:A 0.2529
*RES
2 TAUGATE_35:Z TAUNET_38:1 0.2665
3 TAUNET_38:1 TAUNET_38:2 0.4354
4 TAUNET_38:2 TAUNET_38:3 0.1977
5 TAUNET_38:3 TAUNET_38:4 0.0788
6 TAUNET_38:4 TAUNET_38:5 0.3276
7 TAUNET_38:5 TAUGATE_38:A 0.3833
*END

