*SPEF "IEEE 1481-1998"
*DESIGN "changes"
*DATE "Tue Dec 02 19:59:54 2014"
*VENDOR "TAU 2015 Contest"
*PROGRAM "Benchmark Parasitic Generator"
*VERSION "0.0"
*DESIGN_FLOW "NETLIST_TYPE_VERILOG"
*DIVIDER /
*DELIMITER :
*BUS_DELIMITER [ ]
*T_UNIT 1 PS
*C_UNIT 1 FF
*R_UNIT 1 KOHM
*L_UNIT 1 UH

*D_NET net_760 17.6347
*CONN
*I TAUGATE_1:Z O
*I inst_486:A1 I
*I inst_244:A2 I
*I inst_47:A1 I
*I inst_548:A I
*I inst_241:A2 I
*I inst_719:A I
*I inst_53:A2 I
*I inst_69:A1 I
*I inst_204:A2 I
*I inst_54:A2 I
*I inst_6:A2 I
*I inst_235:A2 I
*I inst_771:A2 I
*I inst_48:A2 I
*I inst_7:A1 I
*CAP
1 TAUGATE_1:Z 0.2611
2 net_760:1 0.4098
3 net_760:2 0.5009
4 net_760:3 0.2843
5 inst_719:A 0.2878
6 net_760:4 0.4685
7 net_760:5 0.3070
8 net_760:6 0.3583
9 inst_244:A2 0.1395
10 net_760:7 0.4644
11 net_760:8 0.4559
12 net_760:9 0.4050
13 net_760:10 0.0154
14 inst_47:A1 0.1670
15 net_760:11 0.2909
16 net_760:12 0.3706
17 inst_548:A 0.0740
18 net_760:13 0.0292
19 net_760:14 0.2926
20 inst_241:A2 0.4507
21 net_760:15 0.3464
22 net_760:16 0.0305
23 net_760:17 0.2383
24 net_760:18 0.4020
25 inst_486:A1 0.2529
26 net_760:19 0.1922
27 net_760:20 0.2805
28 net_760:21 0.1322
29 inst_53:A2 0.1905
30 net_760:22 0.1955
31 net_760:23 0.1868
32 net_760:24 0.4889
33 inst_69:A1 0.0703
34 net_760:25 0.0717
35 net_760:26 0.3990
36 inst_204:A2 0.4035
37 net_760:27 0.3591
38 net_760:28 0.2780
39 net_760:29 0.2022
40 net_760:30 0.1593
41 net_760:31 0.4382
42 inst_54:A2 0.3498
43 net_760:32 0.3789
44 net_760:33 0.3545
45 net_760:34 0.1033
46 net_760:35 0.4316
47 net_760:36 0.1782
48 inst_6:A2 0.4734
49 net_760:37 0.2434
50 net_760:38 0.3726
51 net_760:39 0.2980
52 net_760:40 0.2454
53 inst_235:A2 0.4670
54 net_760:41 0.3699
55 inst_771:A2 0.4131
56 net_760:42 0.0282
57 net_760:43 0.3089
58 net_760:44 0.0253
59 net_760:45 0.3105
60 inst_48:A2 0.1881
61 net_760:46 0.3854
62 inst_7:A1 0.3580
*RES
2 TAUGATE_1:Z net_760:1 0.1659
3 net_760:1 net_760:2 0.2742
4 net_760:2 net_760:3 0.3494
5 net_760:3 inst_719:A 0.1485
6 net_760:3 net_760:4 0.0646
7 net_760:4 net_760:5 0.0794
8 net_760:5 net_760:6 0.2161
9 net_760:6 inst_244:A2 0.1614
10 net_760:4 net_760:7 0.1555
11 net_760:7 net_760:8 0.2440
12 net_760:8 net_760:9 0.0332
13 net_760:9 net_760:10 0.0406
14 net_760:10 inst_47:A1 0.2732
15 net_760:3 net_760:11 0.4871
16 net_760:11 net_760:12 0.4951
17 net_760:12 inst_548:A 0.4125
18 net_760:1 net_760:13 0.3356
19 net_760:13 net_760:14 0.3995
20 net_760:14 inst_241:A2 0.3845
21 net_760:14 net_760:15 0.2665
22 net_760:15 net_760:16 0.4354
23 net_760:16 net_760:17 0.1977
24 net_760:17 net_760:18 0.0788
25 net_760:18 inst_486:A1 0.3276
26 net_760:3 net_760:19 0.4017
27 net_760:19 net_760:20 0.4680
28 net_760:20 net_760:21 0.2976
29 net_760:21 inst_53:A2 0.2331
30 net_760:17 net_760:22 0.3298
31 net_760:22 net_760:23 0.4131
32 net_760:23 net_760:24 0.3310
33 net_760:24 inst_69:A1 0.2621
34 net_760:24 net_760:25 0.0219
35 net_760:25 net_760:26 0.0830
36 net_760:26 inst_204:A2 0.4539
37 net_760:17 net_760:27 0.4055
38 net_760:27 net_760:28 0.4519
39 net_760:28 net_760:29 0.4658
40 net_760:29 net_760:30 0.3690
41 net_760:30 net_760:31 0.4019
42 net_760:31 inst_54:A2 0.0632
43 net_760:15 net_760:32 0.0376
44 net_760:32 net_760:33 0.0972
45 net_760:33 net_760:34 0.3594
46 net_760:34 net_760:35 0.0525
47 net_760:35 net_760:36 0.3248
48 net_760:36 inst_6:A2 0.2597
49 net_760:10 net_760:37 0.1921
50 net_760:37 net_760:38 0.1376
51 net_760:38 net_760:39 0.4443
52 net_760:39 net_760:40 0.1288
53 net_760:40 inst_235:A2 0.3022
54 net_760:11 net_760:41 0.4004
55 net_760:41 inst_771:A2 0.4814
56 net_760:11 net_760:42 0.2034
57 net_760:42 net_760:43 0.1592
58 net_760:43 net_760:44 0.3147
59 net_760:44 net_760:45 0.2761
60 net_760:45 inst_48:A2 0.3643
61 net_760:21 net_760:46 0.3774
62 net_760:46 inst_7:A1 0.2731
*END

*D_NET TAUNET_1 1.1096
*CONN
*I inst_764:QN O
*I TAUGATE_1:A I
*CAP
1 inst_764:QN 0.0518
2 TAUNET_1:1 0.2154
3 TAUNET_1:2 0.4921
4 TAUNET_1:3 0.1648
5 TAUGATE_1:A 0.1855
*RES
2 inst_764:QN TAUNET_1:1 0.0112
3 TAUNET_1:1 TAUNET_1:2 0.3530
4 TAUNET_1:2 TAUNET_1:3 0.1128
5 TAUNET_1:3 TAUGATE_1:A 0.2239
*END

