*SPEF "IEEE 1481-1998"
*DESIGN "changes"
*DATE "Tue Dec 02 20:01:17 2014"
*VENDOR "TAU 2015 Contest"
*PROGRAM "Benchmark Parasitic Generator"
*VERSION "0.0"
*DESIGN_FLOW "NETLIST_TYPE_VERILOG"
*DIVIDER /
*DELIMITER :
*BUS_DELIMITER [ ]
*T_UNIT 1 PS
*C_UNIT 1 FF
*R_UNIT 1 KOHM
*L_UNIT 1 UH

*D_NET net_568 1.7439
*CONN
*I inst_432:ZN O
*I inst_500:B I
*CAP
1 inst_432:ZN 0.2611
2 net_568:1 0.4098
3 net_568:2 0.5009
4 net_568:3 0.2843
5 inst_500:B 0.2878
*RES
2 inst_432:ZN net_568:1 0.1659
3 net_568:1 net_568:2 0.2742
4 net_568:2 net_568:3 0.3494
5 net_568:3 inst_500:B 0.1485
*END

*D_NET net_621 1.3760
*CONN
*I inst_140:ZN O
*I inst_472:A2 I
*CAP
1 inst_140:ZN 0.2110
2 net_621:1 0.3070
3 net_621:2 0.3583
4 net_621:3 0.1395
5 net_621:4 0.0646
6 net_621:5 0.0794
7 inst_472:A2 0.2161
*RES
2 inst_140:ZN net_621:1 0.1614
3 net_621:1 net_621:2 0.3312
4 net_621:2 net_621:3 0.3755
5 net_621:3 net_621:4 0.4644
6 net_621:4 net_621:5 0.4559
7 net_621:5 inst_472:A2 0.4050
*END

*D_NET net_176 4.8652
*CONN
*I inst_52:ZN O
*I inst_274:A2 I
*I inst_775:A1 I
*I inst_154:A2 I
*I inst_271:A2 I
*CAP
1 inst_52:ZN 0.1670
2 net_176:1 0.2440
3 net_176:2 0.0332
4 inst_274:A2 0.0406
5 net_176:3 0.3706
6 net_176:4 0.0740
7 net_176:5 0.4871
8 inst_775:A1 0.4951
9 net_176:6 0.3356
10 net_176:7 0.3995
11 net_176:8 0.3845
12 net_176:9 0.4708
13 net_176:10 0.3056
14 inst_154:A2 0.3464
15 net_176:11 0.3276
16 inst_271:A2 0.3833
*RES
2 inst_52:ZN net_176:1 0.2732
3 net_176:1 net_176:2 0.0073
4 net_176:2 inst_274:A2 0.1308
5 net_176:1 net_176:3 0.4125
6 net_176:3 net_176:4 0.0565
7 net_176:4 net_176:5 0.1285
8 net_176:5 inst_775:A1 0.0292
9 net_176:3 net_176:6 0.0305
10 net_176:6 net_176:7 0.2383
11 net_176:7 net_176:8 0.4020
12 net_176:8 net_176:9 0.2529
13 net_176:9 net_176:10 0.2665
14 net_176:10 inst_154:A2 0.4354
15 net_176:4 net_176:11 0.3292
16 net_176:11 inst_271:A2 0.0716
*END

*D_NET net_215 2.9331
*CONN
*I TAUGATE_487:Z O
*I inst_664:A I
*I inst_318:A2 I
*I inst_212:A1 I
*CAP
1 TAUGATE_487:Z 0.1922
2 net_215:1 0.1322
3 net_215:2 0.1905
4 net_215:3 0.4017
5 inst_318:A2 0.4680
6 net_215:4 0.1868
7 net_215:5 0.4889
8 inst_664:A 0.0703
9 net_215:6 0.3990
10 inst_212:A1 0.4035
*RES
2 TAUGATE_487:Z net_215:1 0.2976
3 net_215:1 net_215:2 0.2331
4 net_215:2 net_215:3 0.2927
5 net_215:3 inst_318:A2 0.3943
6 net_215:2 net_215:4 0.3298
7 net_215:4 net_215:5 0.4131
8 net_215:5 inst_664:A 0.3310
9 net_215:2 net_215:6 0.0219
10 net_215:6 inst_212:A1 0.0830
*END

*D_NET net_416 1.6212
*CONN
*I inst_700:ZN O
*I inst_135:A1 I
*CAP
1 inst_700:ZN 0.1250
2 net_416:1 0.4976
3 net_416:2 0.3591
4 net_416:3 0.2780
5 net_416:4 0.2022
6 inst_135:A1 0.1593
*RES
2 inst_700:ZN net_416:1 0.4382
3 net_416:1 net_416:2 0.3498
4 net_416:2 net_416:3 0.4055
5 net_416:3 net_416:4 0.4519
6 net_416:4 inst_135:A1 0.4658
*END

*D_NET net_105 1.1222
*CONN
*I inst_623:ZN O
*I inst_160:A3 I
*CAP
1 inst_623:ZN 0.4019
2 net_105:1 0.2503
3 inst_160:A3 0.4700
*RES
2 inst_623:ZN net_105:1 0.3789
3 net_105:1 inst_160:A3 0.3545
*END

*D_NET net_532 1.0398
*CONN
*I inst_413:ZN O
*I inst_431:A2 I
*CAP
1 inst_413:ZN 0.4316
2 net_532:1 0.4734
3 net_532:2 0.0376
4 inst_431:A2 0.0972
*RES
2 inst_413:ZN net_532:1 0.3594
3 net_532:1 net_532:2 0.0525
4 net_532:2 inst_431:A2 0.3248
*END

*D_NET net_694 1.7532
*CONN
*I inst_230:ZN O
*I inst_232:A1 I
*CAP
1 inst_230:ZN 0.1267
2 net_694:1 0.2434
3 net_694:2 0.3726
4 net_694:3 0.2980
5 net_694:4 0.2454
6 inst_232:A1 0.4670
*RES
2 inst_230:ZN net_694:1 0.1921
3 net_694:1 net_694:2 0.1376
4 net_694:2 net_694:3 0.4443
5 net_694:3 net_694:4 0.1288
6 net_694:4 inst_232:A1 0.3022
*END

*D_NET net_614 1.8873
*CONN
*I inst_454:ZN O
*I inst_476:A1 I
*CAP
1 inst_454:ZN 0.0668
2 net_614:1 0.4131
3 net_614:2 0.4004
4 net_614:3 0.4814
5 net_614:4 0.1341
6 inst_476:A1 0.3915
*RES
2 inst_454:ZN net_614:1 0.0282
3 net_614:1 net_614:2 0.3089
4 net_614:2 net_614:3 0.0253
5 net_614:3 net_614:4 0.3105
6 net_614:4 inst_476:A1 0.1881
*END

*D_NET net_557 1.4805
*CONN
*I inst_426:ZN O
*I inst_448:A2 I
*CAP
1 inst_426:ZN 0.1592
2 net_557:1 0.2761
3 net_557:2 0.3643
4 net_557:3 0.2288
5 net_557:4 0.0666
6 inst_448:A2 0.3854
*RES
2 inst_426:ZN net_557:1 0.3580
3 net_557:1 net_557:2 0.3774
4 net_557:2 net_557:3 0.2731
5 net_557:3 net_557:4 0.1525
6 net_557:4 inst_448:A2 0.0518
*END

*D_NET net_373 1.2665
*CONN
*I inst_346:ZN O
*I inst_393:A2 I
*CAP
1 inst_346:ZN 0.2154
2 net_373:1 0.1648
3 net_373:2 0.1855
4 net_373:3 0.0112
5 net_373:4 0.3530
6 net_373:5 0.1128
7 inst_393:A2 0.2239
*RES
2 inst_346:ZN net_373:1 0.0917
3 net_373:1 net_373:2 0.4230
4 net_373:2 net_373:3 0.1494
5 net_373:3 net_373:4 0.3290
6 net_373:4 net_373:5 0.1620
7 net_373:5 inst_393:A2 0.0029
*END

*D_NET net_98 1.0297
*CONN
*I inst_487:ZN O
*I inst_301:A2 I
*CAP
1 inst_487:ZN 0.1903
2 net_98:1 0.3484
3 net_98:2 0.0801
4 net_98:3 0.1392
5 net_98:4 0.1891
6 net_98:5 0.0464
7 inst_301:A2 0.0364
*RES
2 inst_487:ZN net_98:1 0.0279
3 net_98:1 net_98:2 0.4104
4 net_98:2 net_98:3 0.0649
5 net_98:3 net_98:4 0.0510
6 net_98:4 net_98:5 0.1600
7 net_98:5 inst_301:A2 0.1748
*END

*D_NET net_648 1.6599
*CONN
*I inst_484:ZN O
*I inst_765:D I
*CAP
1 inst_484:ZN 0.1076
2 net_648:1 0.3388
3 net_648:2 0.4657
4 net_648:3 0.3595
5 net_648:4 0.2471
6 net_648:5 0.0832
7 inst_765:D 0.0580
*RES
2 inst_484:ZN net_648:1 0.3736
3 net_648:1 net_648:2 0.0395
4 net_648:2 net_648:3 0.3644
5 net_648:3 net_648:4 0.0829
6 net_648:4 net_648:5 0.1977
7 net_648:5 inst_765:D 0.4694
*END

*D_NET v13_D_19 2.0853
*CONN
*I TAUGATE_435:Z O
*P v13_D_19 O
*CAP
1 TAUGATE_435:Z 0.3882
2 v13_D_19:1 0.0413
3 v13_D_19:2 0.4651
4 v13_D_19:3 0.4065
5 v13_D_19:4 0.3164
6 v13_D_19:5 0.3513
7 v13_D_19 0.1165
*RES
2 TAUGATE_435:Z v13_D_19:1 0.0986
3 v13_D_19:1 v13_D_19:2 0.2243
4 v13_D_19:2 v13_D_19:3 0.1286
5 v13_D_19:3 v13_D_19:4 0.4269
6 v13_D_19:4 v13_D_19:5 0.2482
7 v13_D_19:5 v13_D_19 0.2195
*END

*D_NET net_93 18.3562
*CONN
*I TAUGATE_249:Z O
*I inst_52:A2 I
*I inst_755:A I
*I inst_251:A1 I
*I inst_54:A1 I
*I inst_250:A1 I
*I inst_772:A2 I
*I inst_198:A1 I
*I inst_245:A1 I
*I inst_234:A2 I
*I inst_68:A1 I
*I inst_70:A2 I
*I inst_124:A2 I
*I inst_1:A3 I
*I inst_67:A2 I
*I inst_538:A I
*I inst_539:A I
*I inst_66:A2 I
*CAP
1 TAUGATE_249:Z 0.4091
2 net_93:1 0.3587
3 net_93:2 0.1869
4 net_93:3 0.4974
5 inst_772:A2 0.3047
6 net_93:4 0.2763
7 inst_755:A 0.2945
8 net_93:5 0.1317
9 net_93:6 0.3617
10 net_93:7 0.0856
11 net_93:8 0.3629
12 inst_251:A1 0.2821
13 net_93:9 0.2907
14 net_93:10 0.0362
15 net_93:11 0.4966
16 net_93:12 0.4101
17 inst_54:A1 0.2702
18 net_93:13 0.2009
19 net_93:14 0.3114
20 net_93:15 0.3090
21 net_93:16 0.3972
22 net_93:17 0.4228
23 inst_250:A1 0.2443
24 net_93:18 0.0472
25 net_93:19 0.4436
26 net_93:20 0.1981
27 net_93:21 0.3275
28 inst_52:A2 0.0169
29 net_93:22 0.3875
30 net_93:23 0.4796
31 net_93:24 0.3740
32 net_93:25 0.1554
33 net_93:26 0.0209
34 inst_198:A1 0.4380
35 net_93:27 0.2438
36 net_93:28 0.2969
37 net_93:29 0.3091
38 net_93:30 0.5006
39 net_93:31 0.2264
40 inst_245:A1 0.3973
41 net_93:32 0.0562
42 net_93:33 0.0882
43 inst_234:A2 0.4386
44 net_93:34 0.1026
45 net_93:35 0.1939
46 inst_68:A1 0.1095
47 net_93:36 0.4033
48 net_93:37 0.3663
49 inst_70:A2 0.2540
50 net_93:38 0.0863
51 inst_124:A2 0.3102
52 net_93:39 0.4441
53 net_93:40 0.4218
54 net_93:41 0.0848
55 net_93:42 0.0266
56 inst_1:A3 0.0274
57 net_93:43 0.4492
58 inst_67:A2 0.3124
59 net_93:44 0.3420
60 net_93:45 0.0965
61 net_93:46 0.2555
62 inst_538:A 0.1304
63 net_93:47 0.0608
64 inst_539:A 0.3721
65 net_93:48 0.1439
66 net_93:49 0.0264
67 net_93:50 0.2502
68 net_93:51 0.2506
69 inst_66:A2 0.4486
*RES
2 TAUGATE_249:Z net_93:1 0.1200
3 net_93:1 net_93:2 0.4969
4 net_93:2 net_93:3 0.1210
5 net_93:3 inst_772:A2 0.1733
6 net_93:1 net_93:4 0.3177
7 net_93:4 inst_755:A 0.2101
8 net_93:2 net_93:5 0.3900
9 net_93:5 net_93:6 0.0557
10 net_93:6 net_93:7 0.1253
11 net_93:7 net_93:8 0.2716
12 net_93:8 inst_251:A1 0.3735
13 net_93:2 net_93:9 0.2135
14 net_93:9 net_93:10 0.0419
15 net_93:10 net_93:11 0.2773
16 net_93:11 net_93:12 0.0903
17 net_93:12 inst_54:A1 0.0485
18 net_93:12 net_93:13 0.2458
19 net_93:13 net_93:14 0.3734
20 net_93:14 net_93:15 0.1567
21 net_93:15 net_93:16 0.1247
22 net_93:16 net_93:17 0.2439
23 net_93:17 inst_250:A1 0.2588
24 net_93:16 net_93:18 0.4026
25 net_93:18 net_93:19 0.4684
26 net_93:19 net_93:20 0.2490
27 net_93:20 net_93:21 0.0579
28 net_93:21 inst_52:A2 0.0423
29 net_93:12 net_93:22 0.4130
30 net_93:22 net_93:23 0.4990
31 net_93:23 net_93:24 0.2134
32 net_93:24 net_93:25 0.1115
33 net_93:25 net_93:26 0.4947
34 net_93:26 inst_198:A1 0.3666
35 net_93:15 net_93:27 0.2044
36 net_93:27 net_93:28 0.1531
37 net_93:28 net_93:29 0.3886
38 net_93:29 net_93:30 0.2618
39 net_93:30 net_93:31 0.2468
40 net_93:31 inst_245:A1 0.4002
41 net_93:23 net_93:32 0.2715
42 net_93:32 net_93:33 0.0199
43 net_93:33 inst_234:A2 0.4145
44 net_93:9 net_93:34 0.0212
45 net_93:34 net_93:35 0.1417
46 net_93:35 inst_68:A1 0.2190
47 net_93:35 net_93:36 0.0526
48 net_93:36 net_93:37 0.2388
49 net_93:37 inst_70:A2 0.1787
50 net_93:28 net_93:38 0.1239
51 net_93:38 inst_124:A2 0.2473
52 net_93:19 net_93:39 0.4218
53 net_93:39 net_93:40 0.2061
54 net_93:40 net_93:41 0.2110
55 net_93:41 net_93:42 0.4583
56 net_93:42 inst_1:A3 0.3985
57 net_93:1 net_93:43 0.3685
58 net_93:43 inst_67:A2 0.4317
59 net_93:16 net_93:44 0.3675
60 net_93:44 net_93:45 0.4634
61 net_93:45 net_93:46 0.2869
62 net_93:46 inst_538:A 0.1646
63 net_93:11 net_93:47 0.4648
64 net_93:47 inst_539:A 0.2376
65 net_93:11 net_93:48 0.0641
66 net_93:48 net_93:49 0.0138
67 net_93:49 net_93:50 0.0079
68 net_93:50 net_93:51 0.0204
69 net_93:51 inst_66:A2 0.2219
*END

*D_NET net_452 0.5791
*CONN
*I TAUGATE_17:Z O
*I inst_406:A2 I
*CAP
1 TAUGATE_17:Z 0.2747
2 net_452:1 0.2303
3 net_452:2 0.0121
4 inst_406:A2 0.0620
*RES
2 TAUGATE_17:Z net_452:1 0.0267
3 net_452:1 net_452:2 0.1278
4 net_452:2 inst_406:A2 0.1079
*END

*D_NET TAUNET_31 1.8489
*CONN
*I inst_21:ZN O
*I TAUGATE_31:A I
*CAP
1 inst_21:ZN 0.1254
2 TAUNET_31:1 0.4751
3 TAUNET_31:2 0.3195
4 TAUNET_31:3 0.4748
5 TAUNET_31:4 0.2505
6 TAUGATE_31:A 0.2036
*RES
2 inst_21:ZN TAUNET_31:1 0.3990
3 TAUNET_31:1 TAUNET_31:2 0.0185
4 TAUNET_31:2 TAUNET_31:3 0.3777
5 TAUNET_31:3 TAUNET_31:4 0.2437
6 TAUNET_31:4 TAUGATE_31:A 0.3641
*END

*D_NET TAUNET_71 1.6172
*CONN
*I TAUGATE_205:Z O
*I TAUGATE_71:A I
*I inst_315:A2 I
*CAP
1 TAUGATE_205:Z 0.2452
2 TAUNET_71:1 0.2079
3 TAUNET_71:2 0.2449
4 TAUNET_71:3 0.0406
5 TAUGATE_71:A 0.0917
6 TAUNET_71:4 0.0937
7 TAUNET_71:5 0.2944
8 inst_315:A2 0.3987
*RES
2 TAUGATE_205:Z TAUNET_71:1 0.0078
3 TAUNET_71:1 TAUNET_71:2 0.0227
4 TAUNET_71:2 TAUNET_71:3 0.0264
5 TAUNET_71:3 TAUGATE_71:A 0.0174
6 TAUNET_71:1 TAUNET_71:4 0.0209
7 TAUNET_71:4 TAUNET_71:5 0.1182
8 TAUNET_71:5 inst_315:A2 0.1067
*END

*D_NET net_741 2.0282
*CONN
*I TAUGATE_26:Z O
*I inst_225:A1 I
*CAP
1 TAUGATE_26:Z 0.3672
2 net_741:1 0.1157
3 net_741:2 0.1901
4 net_741:3 0.2138
5 net_741:4 0.5008
6 net_741:5 0.2979
7 inst_225:A1 0.3428
*RES
2 TAUGATE_26:Z net_741:1 0.2325
3 net_741:1 net_741:2 0.2733
4 net_741:2 net_741:3 0.1266
5 net_741:3 net_741:4 0.3814
6 net_741:4 net_741:5 0.1363
7 net_741:5 inst_225:A1 0.3277
*END

*D_NET net_302 2.1088
*CONN
*I inst_285:ZN O
*I inst_180:A2 I
*I inst_86:A2 I
*CAP
1 inst_285:ZN 0.4503
2 net_302:1 0.1603
3 net_302:2 0.4423
4 net_302:3 0.1159
5 net_302:4 0.4527
6 inst_86:A2 0.1465
7 net_302:5 0.1546
8 inst_180:A2 0.1861
*RES
2 inst_285:ZN net_302:1 0.1463
3 net_302:1 net_302:2 0.4621
4 net_302:2 net_302:3 0.4065
5 net_302:3 net_302:4 0.0227
6 net_302:4 inst_86:A2 0.2236
7 net_302:4 net_302:5 0.4367
8 net_302:5 inst_180:A2 0.3452
*END

*D_NET net_569 3.2526
*CONN
*I inst_291:ZN O
*I inst_433:A1 I
*I inst_138:A2 I
*I inst_401:A1 I
*CAP
1 inst_291:ZN 0.1217
2 net_569:1 0.1222
3 inst_433:A1 0.0613
4 net_569:2 0.2603
5 net_569:3 0.2874
6 net_569:4 0.3072
7 inst_138:A2 0.2768
8 net_569:5 0.4796
9 net_569:6 0.3806
10 net_569:7 0.4946
11 inst_401:A1 0.4608
*RES
2 inst_291:ZN net_569:1 0.1692
3 net_569:1 inst_433:A1 0.4407
4 net_569:1 net_569:2 0.1679
5 net_569:2 net_569:3 0.2053
6 net_569:3 net_569:4 0.2140
7 net_569:4 inst_138:A2 0.3306
8 net_569:2 net_569:5 0.4692
9 net_569:5 net_569:6 0.4766
10 net_569:6 net_569:7 0.0589
11 net_569:7 inst_401:A1 0.0962
*END

*D_NET net_385 9.3860
*CONN
*I inst_678:ZN O
*I inst_395:A1 I
*I inst_416:A1 I
*I inst_691:A I
*I inst_684:A I
*I inst_501:S I
*I inst_704:A I
*I inst_442:A1 I
*I inst_349:A1 I
*I inst_387:A1 I
*CAP
1 inst_678:ZN 0.1750
2 net_385:1 0.0845
3 net_385:2 0.1888
4 net_385:3 0.1436
5 net_385:4 0.1762
6 net_385:5 0.4748
7 inst_501:S 0.0806
8 net_385:6 0.4110
9 net_385:7 0.0191
10 inst_416:A1 0.3538
11 net_385:8 0.4025
12 net_385:9 0.5010
13 net_385:10 0.3538
14 inst_691:A 0.4649
15 net_385:11 0.3761
16 net_385:12 0.0616
17 net_385:13 0.4298
18 inst_684:A 0.2857
19 net_385:14 0.1284
20 net_385:15 0.0036
21 net_385:16 0.1731
22 net_385:17 0.2737
23 net_385:18 0.3095
24 inst_395:A1 0.4895
25 net_385:19 0.4915
26 net_385:20 0.0683
27 inst_704:A 0.2135
28 net_385:21 0.1477
29 inst_442:A1 0.4806
30 net_385:22 0.1100
31 net_385:23 0.2818
32 net_385:24 0.3290
33 inst_349:A1 0.1592
34 net_385:25 0.0096
35 net_385:26 0.4963
36 inst_387:A1 0.2377
*RES
2 inst_678:ZN net_385:1 0.0407
3 net_385:1 net_385:2 0.2069
4 net_385:2 net_385:3 0.0491
5 net_385:3 net_385:4 0.4137
6 net_385:4 net_385:5 0.3046
7 net_385:5 inst_501:S 0.2987
8 net_385:3 net_385:6 0.4300
9 net_385:6 net_385:7 0.3629
10 net_385:7 inst_416:A1 0.0787
11 net_385:3 net_385:8 0.0482
12 net_385:8 net_385:9 0.1062
13 net_385:9 net_385:10 0.2963
14 net_385:10 inst_691:A 0.4911
15 net_385:5 net_385:11 0.2634
16 net_385:11 net_385:12 0.0470
17 net_385:12 net_385:13 0.0745
18 net_385:13 inst_684:A 0.1738
19 net_385:12 net_385:14 0.4033
20 net_385:14 net_385:15 0.2734
21 net_385:15 net_385:16 0.3461
22 net_385:16 net_385:17 0.3729
23 net_385:17 net_385:18 0.0418
24 net_385:18 inst_395:A1 0.3671
25 net_385:14 net_385:19 0.4484
26 net_385:19 net_385:20 0.1379
27 net_385:20 inst_704:A 0.1139
28 net_385:2 net_385:21 0.3473
29 net_385:21 inst_442:A1 0.1114
30 net_385:1 net_385:22 0.4236
31 net_385:22 net_385:23 0.3328
32 net_385:23 net_385:24 0.1906
33 net_385:24 inst_349:A1 0.5003
34 net_385:16 net_385:25 0.2571
35 net_385:25 net_385:26 0.3610
36 net_385:26 inst_387:A1 0.0042
*END

*D_NET net_269 5.0543
*CONN
*I TAUGATE_510:Z O
*I inst_310:A1 I
*I inst_287:A1 I
*I inst_176:A3 I
*I inst_73:A2 I
*I inst_372:A1 I
*CAP
1 TAUGATE_510:Z 0.3841
2 net_269:1 0.2352
3 net_269:2 0.3112
4 net_269:3 0.1345
5 net_269:4 0.4134
6 inst_176:A3 0.0741
7 net_269:5 0.2343
8 net_269:6 0.1106
9 net_269:7 0.0283
10 inst_287:A1 0.2644
11 net_269:8 0.2939
12 inst_310:A1 0.2177
13 net_269:9 0.1825
14 net_269:10 0.4154
15 net_269:11 0.4205
16 inst_73:A2 0.1921
17 net_269:12 0.0450
18 net_269:13 0.3586
19 net_269:14 0.1804
20 net_269:15 0.2132
21 inst_372:A1 0.3448
*RES
2 TAUGATE_510:Z net_269:1 0.4290
3 net_269:1 net_269:2 0.4891
4 net_269:2 net_269:3 0.0621
5 net_269:3 net_269:4 0.2122
6 net_269:4 inst_176:A3 0.2034
7 net_269:1 net_269:5 0.3395
8 net_269:5 net_269:6 0.4160
9 net_269:6 net_269:7 0.1311
10 net_269:7 inst_287:A1 0.1702
11 net_269:1 net_269:8 0.0520
12 net_269:8 inst_310:A1 0.1787
13 net_269:6 net_269:9 0.3303
14 net_269:9 net_269:10 0.0500
15 net_269:10 net_269:11 0.3450
16 net_269:11 inst_73:A2 0.2552
17 net_269:6 net_269:12 0.2539
18 net_269:12 net_269:13 0.0169
19 net_269:13 net_269:14 0.2910
20 net_269:14 net_269:15 0.3418
21 net_269:15 inst_372:A1 0.0277
*END

*D_NET net_127 1.3039
*CONN
*I inst_246:ZN O
*I inst_632:A I
*I inst_79:A2 I
*CAP
1 inst_246:ZN 0.0700
2 net_127:1 0.4916
3 net_127:2 0.0258
4 net_127:3 0.0722
5 net_127:4 0.0268
6 inst_632:A 0.0274
7 net_127:5 0.1555
8 inst_79:A2 0.4347
*RES
2 inst_246:ZN net_127:1 0.0955
3 net_127:1 net_127:2 0.0758
4 net_127:2 net_127:3 0.0730
5 net_127:3 net_127:4 0.2996
6 net_127:4 inst_632:A 0.1500
7 net_127:3 net_127:5 0.2976
8 net_127:5 inst_79:A2 0.3531
*END

*D_NET net_327 0.8501
*CONN
*I inst_325:ZN O
*I inst_359:A2 I
*CAP
1 inst_325:ZN 0.1823
2 net_327:1 0.3163
3 inst_359:A2 0.3515
*RES
2 inst_325:ZN net_327:1 0.2983
3 net_327:1 inst_359:A2 0.4269
*END

*D_NET net_469 1.6831
*CONN
*I inst_754:ZN O
*I inst_117:A1 I
*CAP
1 inst_754:ZN 0.0341
2 net_469:1 0.3389
3 net_469:2 0.4000
4 net_469:3 0.0188
5 net_469:4 0.4709
6 inst_117:A1 0.4204
*RES
2 inst_754:ZN net_469:1 0.0122
3 net_469:1 net_469:2 0.2688
4 net_469:2 net_469:3 0.0936
5 net_469:3 net_469:4 0.3051
6 net_469:4 inst_117:A1 0.1197
*END

*D_NET net_753 0.8159
*CONN
*I inst_347:ZN O
*I inst_183:A2 I
*CAP
1 inst_347:ZN 0.2210
2 net_753:1 0.2798
3 inst_183:A2 0.3150
*RES
2 inst_347:ZN net_753:1 0.0137
3 net_753:1 inst_183:A2 0.2108
*END

*D_NET net_630 1.1420
*CONN
*I inst_469:ZN O
*I inst_474:A2 I
*CAP
1 inst_469:ZN 0.0161
2 net_630:1 0.3729
3 net_630:2 0.0610
4 net_630:3 0.4010
5 inst_474:A2 0.2910
*RES
2 inst_469:ZN net_630:1 0.3768
3 net_630:1 net_630:2 0.3083
4 net_630:2 net_630:3 0.1250
5 net_630:3 inst_474:A2 0.3526
*END

*D_NET net_626 1.6292
*CONN
*I inst_465:ZN O
*I inst_478:A2 I
*CAP
1 inst_465:ZN 0.3144
2 net_626:1 0.0820
3 net_626:2 0.2174
4 net_626:3 0.3638
5 net_626:4 0.4097
6 inst_478:A2 0.2418
*RES
2 inst_465:ZN net_626:1 0.4080
3 net_626:1 net_626:2 0.3118
4 net_626:2 net_626:3 0.4981
5 net_626:3 net_626:4 0.3134
6 net_626:4 inst_478:A2 0.4059
*END

*D_NET net_187 1.0561
*CONN
*I inst_202:ZN O
*I inst_297:A1 I
*I inst_278:A2 I
*CAP
1 inst_202:ZN 0.0910
2 net_187:1 0.3093
3 net_187:2 0.3342
4 inst_297:A1 0.2150
5 net_187:3 0.0521
6 inst_278:A2 0.0546
*RES
2 inst_202:ZN net_187:1 0.0109
3 net_187:1 net_187:2 0.1830
4 net_187:2 inst_297:A1 0.2298
5 net_187:1 net_187:3 0.0043
6 net_187:3 inst_278:A2 0.2737
*END

*D_NET net_388 4.9781
*CONN
*I inst_621:ZN O
*I inst_644:A I
*I inst_499:A I
*I inst_40:A3 I
*I inst_39:A3 I
*CAP
1 inst_621:ZN 0.2677
2 net_388:1 0.1466
3 net_388:2 0.2784
4 net_388:3 0.2008
5 inst_39:A3 0.3776
6 net_388:4 0.3567
7 net_388:5 0.3242
8 net_388:6 0.2336
9 net_388:7 0.3863
10 inst_499:A 0.2365
11 net_388:8 0.4791
12 net_388:9 0.2417
13 inst_40:A3 0.2444
14 net_388:10 0.0863
15 net_388:11 0.2362
16 net_388:12 0.1365
17 net_388:13 0.0277
18 net_388:14 0.4263
19 inst_644:A 0.2912
*RES
2 inst_621:ZN net_388:1 0.2937
3 net_388:1 net_388:2 0.0093
4 net_388:2 net_388:3 0.2822
5 net_388:3 inst_39:A3 0.4311
6 net_388:1 net_388:4 0.1037
7 net_388:4 net_388:5 0.3572
8 net_388:5 net_388:6 0.2211
9 net_388:6 net_388:7 0.2185
10 net_388:7 inst_499:A 0.2266
11 net_388:4 net_388:8 0.4262
12 net_388:8 net_388:9 0.3737
13 net_388:9 inst_40:A3 0.3015
14 net_388:6 net_388:10 0.1111
15 net_388:10 net_388:11 0.3711
16 net_388:11 net_388:12 0.0512
17 net_388:12 net_388:13 0.1351
18 net_388:13 net_388:14 0.0984
19 net_388:14 inst_644:A 0.0368
*END

*D_NET net_90 1.0413
*CONN
*I inst_728:ZN O
*I inst_266:A1 I
*CAP
1 inst_728:ZN 0.1423
2 net_90:1 0.1146
3 net_90:2 0.3234
4 inst_266:A1 0.4610
*RES
2 inst_728:ZN net_90:1 0.4832
3 net_90:1 net_90:2 0.2776
4 net_90:2 inst_266:A1 0.3781
*END

*D_NET net_707 1.1921
*CONN
*I inst_260:ZN O
*I inst_282:A1 I
*CAP
1 inst_260:ZN 0.0185
2 net_707:1 0.1588
3 net_707:2 0.3738
4 net_707:3 0.4556
5 net_707:4 0.1835
6 inst_282:A1 0.0020
*RES
2 inst_260:ZN net_707:1 0.2614
3 net_707:1 net_707:2 0.3010
4 net_707:2 net_707:3 0.2164
5 net_707:3 net_707:4 0.4372
6 net_707:4 inst_282:A1 0.1158
*END

*D_NET net_636 1.1191
*CONN
*I inst_148:ZN O
*I inst_32:A1 I
*CAP
1 inst_148:ZN 0.3810
2 net_636:1 0.1662
3 net_636:2 0.3178
4 inst_32:A1 0.2541
*RES
2 inst_148:ZN net_636:1 0.2497
3 net_636:1 net_636:2 0.4625
4 net_636:2 inst_32:A1 0.2343
*END

*D_NET net_85 1.0962
*CONN
*I inst_70:ZN O
*I inst_29:A3 I
*CAP
1 inst_70:ZN 0.3461
2 net_85:1 0.4109
3 net_85:2 0.0945
4 net_85:3 0.2326
5 inst_29:A3 0.0121
*RES
2 inst_70:ZN net_85:1 0.2674
3 net_85:1 net_85:2 0.2072
4 net_85:2 net_85:3 0.0414
5 net_85:3 inst_29:A3 0.2455
*END

*D_NET net_686 2.4625
*CONN
*I TAUGATE_746:Z O
*I inst_210:A1 I
*I inst_209:A1 I
*CAP
1 TAUGATE_746:Z 0.0138
2 net_686:1 0.3131
3 net_686:2 0.4392
4 net_686:3 0.4048
5 net_686:4 0.0368
6 net_686:5 0.3283
7 inst_210:A1 0.2266
8 net_686:6 0.2966
9 net_686:7 0.3013
10 net_686:8 0.0758
11 inst_209:A1 0.0262
*RES
2 TAUGATE_746:Z net_686:1 0.4199
3 net_686:1 net_686:2 0.3736
4 net_686:2 net_686:3 0.3306
5 net_686:3 net_686:4 0.3042
6 net_686:4 net_686:5 0.1317
7 net_686:5 inst_210:A1 0.1481
8 net_686:3 net_686:6 0.3812
9 net_686:6 net_686:7 0.0656
10 net_686:7 net_686:8 0.1550
11 net_686:8 inst_209:A1 0.0047
*END

*D_NET net_536 1.6139
*CONN
*I inst_777:ZN O
*I inst_148:A1 I
*CAP
1 inst_777:ZN 0.2138
2 net_536:1 0.2523
3 net_536:2 0.0497
4 net_536:3 0.4938
5 net_536:4 0.3913
6 inst_148:A1 0.2131
*RES
2 inst_777:ZN net_536:1 0.3201
3 net_536:1 net_536:2 0.0320
4 net_536:2 net_536:3 0.2786
5 net_536:3 net_536:4 0.3378
6 net_536:4 inst_148:A1 0.4364
*END

*D_NET net_652 1.5961
*CONN
*I inst_120:ZN O
*I inst_761:D I
*CAP
1 inst_120:ZN 0.4527
2 net_652:1 0.3641
3 net_652:2 0.1740
4 net_652:3 0.2701
5 inst_761:D 0.3351
*RES
2 inst_120:ZN net_652:1 0.4105
3 net_652:1 net_652:2 0.3004
4 net_652:2 net_652:3 0.3665
5 net_652:3 inst_761:D 0.1341
*END

*D_NET CLR 2.7539
*CONN
*P CLR I
*I inst_480:A2 I
*I inst_529:A I
*I inst_182:A2 I
*CAP
1 CLR 0.1706
2 CLR:1 0.0751
3 CLR:2 0.1227
4 CLR:3 0.0294
5 CLR:4 0.0059
6 inst_480:A2 0.3552
7 CLR:5 0.3050
8 CLR:6 0.3594
9 inst_529:A 0.4902
10 CLR:7 0.2177
11 CLR:8 0.2908
12 inst_182:A2 0.3318
*RES
2 CLR CLR:1 0.3839
3 CLR:1 CLR:2 0.1840
4 CLR:2 CLR:3 0.4010
5 CLR:3 CLR:4 0.3573
6 CLR:4 inst_480:A2 0.4559
7 CLR:4 CLR:5 0.4716
8 CLR:5 CLR:6 0.2112
9 CLR:6 inst_529:A 0.1762
10 CLR:2 CLR:7 0.3308
11 CLR:7 CLR:8 0.4080
12 CLR:8 inst_182:A2 0.4669
*END

*D_NET TAUNET_474 0.2571
*CONN
*I TAUGATE_263:Z O
*I TAUGATE_474:A I
*CAP
1 TAUGATE_263:Z 0.0675
2 TAUNET_474:1 0.1459
3 TAUGATE_474:A 0.0437
*RES
2 TAUGATE_263:Z TAUNET_474:1 0.4598
3 TAUNET_474:1 TAUGATE_474:A 0.3838
*END

*D_NET net_160 4.1770
*CONN
*I inst_633:ZN O
*I inst_292:A1 I
*I inst_645:A I
*CAP
1 inst_633:ZN 0.3263
2 net_160:1 0.4683
3 net_160:2 0.1543
4 net_160:3 0.4873
5 net_160:4 0.1669
6 net_160:5 0.4800
7 inst_292:A1 0.4518
8 net_160:6 0.3565
9 net_160:7 0.4074
10 net_160:8 0.4309
11 inst_645:A 0.4474
*RES
2 inst_633:ZN net_160:1 0.0570
3 net_160:1 net_160:2 0.4909
4 net_160:2 net_160:3 0.0572
5 net_160:3 net_160:4 0.5008
6 net_160:4 net_160:5 0.1013
7 net_160:5 inst_292:A1 0.2457
8 net_160:5 net_160:6 0.2931
9 net_160:6 net_160:7 0.2848
10 net_160:7 net_160:8 0.2246
11 net_160:8 inst_645:A 0.3320
*END

*D_NET net_240 3.5646
*CONN
*I inst_642:ZN O
*I inst_659:A I
*I inst_307:A1 I
*I inst_301:A1 I
*CAP
1 inst_642:ZN 0.3663
2 net_240:1 0.1368
3 net_240:2 0.4493
4 inst_301:A1 0.4663
5 net_240:3 0.4844
6 net_240:4 0.0401
7 net_240:5 0.2861
8 net_240:6 0.1883
9 net_240:7 0.3075
10 inst_307:A1 0.0604
11 net_240:8 0.1515
12 net_240:9 0.0492
13 net_240:10 0.2707
14 net_240:11 0.0711
15 inst_659:A 0.2365
*RES
2 inst_642:ZN net_240:1 0.2866
3 net_240:1 net_240:2 0.1873
4 net_240:2 inst_301:A1 0.1599
5 net_240:2 net_240:3 0.3908
6 net_240:3 net_240:4 0.2921
7 net_240:4 net_240:5 0.4162
8 net_240:5 net_240:6 0.1285
9 net_240:6 net_240:7 0.0491
10 net_240:7 inst_307:A1 0.3511
11 net_240:3 net_240:8 0.0021
12 net_240:8 net_240:9 0.2080
13 net_240:9 net_240:10 0.3529
14 net_240:10 net_240:11 0.4886
15 net_240:11 inst_659:A 0.3648
*END

*D_NET TAUNET_87 2.6368
*CONN
*I TAUGATE_400:Z O
*I TAUGATE_87:A I
*I inst_246:A1 I
*CAP
1 TAUGATE_400:Z 0.3187
2 TAUNET_87:1 0.0224
3 TAUNET_87:2 0.4026
4 TAUNET_87:3 0.2784
5 TAUNET_87:4 0.1803
6 TAUNET_87:5 0.0882
7 inst_246:A1 0.2924
8 TAUNET_87:6 0.3922
9 TAUNET_87:7 0.3950
10 TAUGATE_87:A 0.2666
*RES
2 TAUGATE_400:Z TAUNET_87:1 0.4780
3 TAUNET_87:1 TAUNET_87:2 0.3510
4 TAUNET_87:2 TAUNET_87:3 0.1182
5 TAUNET_87:3 TAUNET_87:4 0.2614
6 TAUNET_87:4 TAUNET_87:5 0.1530
7 TAUNET_87:5 inst_246:A1 0.2582
8 TAUNET_87:1 TAUNET_87:6 0.4255
9 TAUNET_87:6 TAUNET_87:7 0.4671
10 TAUNET_87:7 TAUGATE_87:A 0.2972
*END

*D_NET TAUNET_50 2.1171
*CONN
*I inst_645:ZN O
*I TAUGATE_50:A I
*CAP
1 inst_645:ZN 0.4880
2 TAUNET_50:1 0.3167
3 TAUNET_50:2 0.3376
4 TAUNET_50:3 0.1073
5 TAUNET_50:4 0.3579
6 TAUNET_50:5 0.1300
7 TAUGATE_50:A 0.3795
*RES
2 inst_645:ZN TAUNET_50:1 0.2362
3 TAUNET_50:1 TAUNET_50:2 0.1908
4 TAUNET_50:2 TAUNET_50:3 0.1996
5 TAUNET_50:3 TAUNET_50:4 0.3123
6 TAUNET_50:4 TAUNET_50:5 0.1251
7 TAUNET_50:5 TAUGATE_50:A 0.0048
*END

*D_NET net_689 0.7154
*CONN
*I inst_106:ZN O
*I inst_231:A2 I
*CAP
1 inst_106:ZN 0.0195
2 net_689:1 0.3700
3 inst_231:A2 0.3260
*RES
2 inst_106:ZN net_689:1 0.3466
3 net_689:1 inst_231:A2 0.4948
*END

*D_NET net_511 0.7773
*CONN
*I inst_25:ZN O
*I inst_428:A1 I
*CAP
1 inst_25:ZN 0.1954
2 net_511:1 0.4904
3 inst_428:A1 0.0915
*RES
2 inst_25:ZN net_511:1 0.4619
3 net_511:1 inst_428:A1 0.1065
*END

*D_NET net_442 0.7741
*CONN
*I inst_370:ZN O
*I inst_401:A2 I
*CAP
1 inst_370:ZN 0.2576
2 net_442:1 0.2231
3 inst_401:A2 0.2934
*RES
2 inst_370:ZN net_442:1 0.0661
3 net_442:1 inst_401:A2 0.0281
*END

*D_NET net_319 0.7745
*CONN
*I TAUGATE_682:Z O
*I inst_102:A1 I
*CAP
1 TAUGATE_682:Z 0.2539
2 net_319:1 0.1980
3 inst_102:A1 0.3226
*RES
2 TAUGATE_682:Z net_319:1 0.1282
3 net_319:1 inst_102:A1 0.2766
*END

*D_NET TAUNET_546 5.7632
*CONN
*I TAUGATE_822:Z O
*I TAUGATE_546:A I
*I inst_406:A1 I
*I inst_424:A1 I
*I inst_40:A1 I
*CAP
1 TAUGATE_822:Z 0.4267
2 TAUNET_546:1 0.3295
3 TAUNET_546:2 0.4724
4 TAUNET_546:3 0.4631
5 TAUNET_546:4 0.0407
6 TAUNET_546:5 0.4130
7 inst_40:A1 0.3462
8 TAUNET_546:6 0.0346
9 TAUNET_546:7 0.4333
10 TAUNET_546:8 0.0645
11 inst_406:A1 0.3416
12 TAUNET_546:9 0.2746
13 TAUNET_546:10 0.4228
14 inst_424:A1 0.1417
15 TAUNET_546:11 0.4926
16 TAUNET_546:12 0.0580
17 TAUNET_546:13 0.3810
18 TAUNET_546:14 0.2195
19 TAUNET_546:15 0.2042
20 TAUGATE_546:A 0.2030
*RES
2 TAUGATE_822:Z TAUNET_546:1 0.0714
3 TAUNET_546:1 TAUNET_546:2 0.2110
4 TAUNET_546:2 TAUNET_546:3 0.2588
5 TAUNET_546:3 TAUNET_546:4 0.0339
6 TAUNET_546:4 TAUNET_546:5 0.0519
7 TAUNET_546:5 inst_40:A1 0.4874
8 TAUNET_546:3 TAUNET_546:6 0.4099
9 TAUNET_546:6 TAUNET_546:7 0.1540
10 TAUNET_546:7 TAUNET_546:8 0.0325
11 TAUNET_546:8 inst_406:A1 0.0924
12 TAUNET_546:4 TAUNET_546:9 0.3754
13 TAUNET_546:9 TAUNET_546:10 0.2016
14 TAUNET_546:10 inst_424:A1 0.0068
15 TAUNET_546:5 TAUNET_546:11 0.2656
16 TAUNET_546:11 TAUNET_546:12 0.4413
17 TAUNET_546:12 TAUNET_546:13 0.1336
18 TAUNET_546:13 TAUNET_546:14 0.4042
19 TAUNET_546:14 TAUNET_546:15 0.0451
20 TAUNET_546:15 TAUGATE_546:A 0.2391
*END

*D_NET TAUNET_134 0.9045
*CONN
*I TAUGATE_526:Z O
*I TAUGATE_134:A I
*CAP
1 TAUGATE_526:Z 0.4146
2 TAUNET_134:1 0.2654
3 TAUGATE_134:A 0.2245
*RES
2 TAUGATE_526:Z TAUNET_134:1 0.4797
3 TAUNET_134:1 TAUGATE_134:A 0.0551
*END

*D_NET TAUNET_705 18.3519
*CONN
*I inst_503:ZN O
*I TAUGATE_705:A I
*I TAUGATE_167:A I
*I inst_244:A1 I
*I inst_51:A1 I
*I inst_57:A1 I
*I inst_773:A2 I
*I inst_163:A3 I
*I inst_52:A1 I
*I inst_774:A2 I
*I inst_127:A3 I
*I inst_206:A2 I
*I inst_16:A2 I
*I inst_14:A1 I
*I inst_15:A2 I
*I inst_1:A1 I
*I inst_202:A2 I
*I inst_48:A1 I
*I inst_152:A1 I
*CAP
1 inst_503:ZN 0.0973
2 TAUNET_705:1 0.1903
3 TAUNET_705:2 0.2143
4 TAUNET_705:3 0.0701
5 TAUNET_705:4 0.2421
6 TAUNET_705:5 0.4634
7 inst_163:A3 0.2497
8 TAUNET_705:6 0.1341
9 TAUGATE_167:A 0.4054
10 TAUNET_705:7 0.0224
11 TAUNET_705:8 0.3933
12 inst_244:A1 0.2244
13 TAUNET_705:9 0.4918
14 TAUNET_705:10 0.3583
15 TAUNET_705:11 0.0251
16 TAUNET_705:12 0.0071
17 inst_51:A1 0.2242
18 TAUNET_705:13 0.3703
19 TAUNET_705:14 0.0365
20 TAUNET_705:15 0.4409
21 TAUNET_705:16 0.4335
22 TAUNET_705:17 0.3158
23 inst_57:A1 0.2513
24 TAUNET_705:18 0.1489
25 TAUNET_705:19 0.3442
26 TAUNET_705:20 0.1815
27 TAUNET_705:21 0.2112
28 TAUNET_705:22 0.3238
29 inst_773:A2 0.1536
30 TAUNET_705:23 0.4392
31 TAUNET_705:24 0.4660
32 TAUNET_705:25 0.3296
33 TAUNET_705:26 0.2711
34 TAUNET_705:27 0.1177
35 TAUGATE_705:A 0.1130
36 TAUNET_705:28 0.4330
37 TAUNET_705:29 0.3792
38 inst_52:A1 0.3945
39 TAUNET_705:30 0.3986
40 inst_774:A2 0.0342
41 TAUNET_705:31 0.0789
42 TAUNET_705:32 0.1418
43 TAUNET_705:33 0.2162
44 TAUNET_705:34 0.3480
45 TAUNET_705:35 0.3423
46 inst_127:A3 0.3091
47 TAUNET_705:36 0.2194
48 TAUNET_705:37 0.0694
49 TAUNET_705:38 0.1731
50 TAUNET_705:39 0.0340
51 inst_206:A2 0.1910
52 TAUNET_705:40 0.1398
53 inst_16:A2 0.3850
54 TAUNET_705:41 0.3839
55 TAUNET_705:42 0.0178
56 inst_14:A1 0.1655
57 TAUNET_705:43 0.1490
58 inst_15:A2 0.4082
59 TAUNET_705:44 0.3524
60 TAUNET_705:45 0.4065
61 inst_1:A1 0.3838
62 TAUNET_705:46 0.2409
63 TAUNET_705:47 0.4071
64 inst_202:A2 0.2078
65 TAUNET_705:48 0.0491
66 TAUNET_705:49 0.0298
67 TAUNET_705:50 0.3266
68 inst_48:A1 0.3430
69 TAUNET_705:51 0.2980
70 TAUNET_705:52 0.1661
71 TAUNET_705:53 0.4120
72 TAUNET_705:54 0.1627
73 TAUNET_705:55 0.0181
74 inst_152:A1 0.3748
*RES
2 inst_503:ZN TAUNET_705:1 0.2766
3 TAUNET_705:1 TAUNET_705:2 0.3086
4 TAUNET_705:2 TAUNET_705:3 0.2353
5 TAUNET_705:3 TAUNET_705:4 0.4838
6 TAUNET_705:4 TAUNET_705:5 0.0722
7 TAUNET_705:5 inst_163:A3 0.3539
8 TAUNET_705:4 TAUNET_705:6 0.3681
9 TAUNET_705:6 TAUGATE_167:A 0.4419
10 TAUNET_705:2 TAUNET_705:7 0.4154
11 TAUNET_705:7 TAUNET_705:8 0.1374
12 TAUNET_705:8 inst_244:A1 0.1713
13 TAUNET_705:5 TAUNET_705:9 0.4834
14 TAUNET_705:9 TAUNET_705:10 0.4589
15 TAUNET_705:10 TAUNET_705:11 0.0098
16 TAUNET_705:11 TAUNET_705:12 0.3264
17 TAUNET_705:12 inst_51:A1 0.2846
18 TAUNET_705:3 TAUNET_705:13 0.4798
19 TAUNET_705:13 TAUNET_705:14 0.1640
20 TAUNET_705:14 TAUNET_705:15 0.1778
21 TAUNET_705:15 TAUNET_705:16 0.3155
22 TAUNET_705:16 TAUNET_705:17 0.4909
23 TAUNET_705:17 inst_57:A1 0.2285
24 TAUNET_705:8 TAUNET_705:18 0.2744
25 TAUNET_705:18 TAUNET_705:19 0.3973
26 TAUNET_705:19 TAUNET_705:20 0.0682
27 TAUNET_705:20 TAUNET_705:21 0.0813
28 TAUNET_705:21 TAUNET_705:22 0.2235
29 TAUNET_705:22 inst_773:A2 0.0018
30 TAUNET_705:12 TAUNET_705:23 0.0719
31 TAUNET_705:23 TAUNET_705:24 0.2913
32 TAUNET_705:24 TAUNET_705:25 0.3837
33 TAUNET_705:25 TAUNET_705:26 0.4308
34 TAUNET_705:26 TAUNET_705:27 0.4593