*SPEF "IEEE 1481-1998"
*DESIGN "changes"
*DATE "Tue Dec 02 19:59:55 2014"
*VENDOR "TAU 2015 Contest"
*PROGRAM "Benchmark Parasitic Generator"
*VERSION "0.0"
*DESIGN_FLOW "NETLIST_TYPE_VERILOG"
*DIVIDER /
*DELIMITER :
*BUS_DELIMITER [ ]
*T_UNIT 1 PS
*C_UNIT 1 FF
*R_UNIT 1 KOHM
*L_UNIT 1 UH

*D_NET TAUNET_13 1.7439
*CONN
*I inst_222:ZN O
*I TAUGATE_13:A I
*CAP
1 inst_222:ZN 0.2611
2 TAUNET_13:1 0.4098
3 TAUNET_13:2 0.5009
4 TAUNET_13:3 0.2843
5 TAUGATE_13:A 0.2878
*RES
2 inst_222:ZN TAUNET_13:1 0.1659
3 TAUNET_13:1 TAUNET_13:2 0.2742
4 TAUNET_13:2 TAUNET_13:3 0.3494
5 TAUNET_13:3 TAUGATE_13:A 0.1485
*END

*D_NET TAUNET_12 1.3760
*CONN
*I inst_637:ZN O
*I TAUGATE_12:A I
*CAP
1 inst_637:ZN 0.2110
2 TAUNET_12:1 0.3070
3 TAUNET_12:2 0.3583
4 TAUNET_12:3 0.1395
5 TAUNET_12:4 0.0646
6 TAUNET_12:5 0.0794
7 TAUGATE_12:A 0.2161
*RES
2 inst_637:ZN TAUNET_12:1 0.1614
3 TAUNET_12:1 TAUNET_12:2 0.3312
4 TAUNET_12:2 TAUNET_12:3 0.3755
5 TAUNET_12:3 TAUNET_12:4 0.4644
6 TAUNET_12:4 TAUNET_12:5 0.4559
7 TAUNET_12:5 TAUGATE_12:A 0.4050
*END

*D_NET net_222 0.4849
*CONN
*I TAUGATE_27:Z O
*I inst_131:A4 I
*CAP
1 TAUGATE_27:Z 0.1670
2 net_222:1 0.2440
3 net_222:2 0.0332
4 inst_131:A4 0.0406
*RES
2 TAUGATE_27:Z net_222:1 0.2732
3 net_222:1 net_222:2 0.0073
4 net_222:2 inst_131:A4 0.1308
*END

*D_NET net_137 8.7738
*CONN
*I TAUGATE_42:Z O
*I inst_205:A2 I
*I inst_161:A2 I
*I inst_560:A I
*I inst_162:A2 I
*I inst_11:A2 I
*I inst_1:A2 I
*I inst_336:A2 I
*CAP
1 TAUGATE_42:Z 0.2909
2 net_137:1 0.0740
3 net_137:2 0.4871
4 net_137:3 0.4951
5 net_137:4 0.4125
6 inst_161:A2 0.0565
7 net_137:5 0.4708
8 net_137:6 0.3056
9 net_137:7 0.3464
10 net_137:8 0.0305
11 inst_205:A2 0.2383
12 net_137:9 0.3833
13 net_137:10 0.3292
14 net_137:11 0.0716
15 net_137:12 0.2236
16 inst_560:A 0.1922
17 net_137:13 0.2927
18 net_137:14 0.3943
19 net_137:15 0.2211
20 inst_162:A2 0.1955
21 net_137:16 0.2621
22 net_137:17 0.4792
23 net_137:18 0.1808
24 net_137:19 0.0717
25 inst_11:A2 0.3990
26 net_137:20 0.2022
27 net_137:21 0.1593
28 net_137:22 0.4382
29 inst_1:A2 0.3498
30 net_137:23 0.2503
31 inst_336:A2 0.4700
*RES
2 TAUGATE_42:Z net_137:1 0.1285
3 net_137:1 net_137:2 0.0292
4 net_137:2 net_137:3 0.2926
5 net_137:3 net_137:4 0.4507
6 net_137:4 inst_161:A2 0.3356
7 net_137:4 net_137:5 0.4020
8 net_137:5 net_137:6 0.2529
9 net_137:6 net_137:7 0.2665
10 net_137:7 net_137:8 0.4354
11 net_137:8 inst_205:A2 0.1977
12 net_137:1 net_137:9 0.2805
13 net_137:9 net_137:10 0.1322
14 net_137:10 net_137:11 0.1905
15 net_137:11 net_137:12 0.4017
16 net_137:12 inst_560:A 0.4680
17 net_137:8 net_137:13 0.1868
18 net_137:13 net_137:14 0.4889
19 net_137:14 net_137:15 0.0703
20 net_137:15 inst_162:A2 0.3298
21 net_137:13 net_137:16 0.4035
22 net_137:16 net_137:17 0.0219
23 net_137:17 net_137:18 0.0830
24 net_137:18 net_137:19 0.4539
25 net_137:19 inst_11:A2 0.1250
26 net_137:14 net_137:20 0.4055
27 net_137:20 net_137:21 0.4519
28 net_137:21 net_137:22 0.4658
29 net_137:22 inst_1:A2 0.3690
30 net_137:19 net_137:23 0.3789
31 net_137:23 inst_336:A2 0.3545
*END

*D_NET net_189 4.2593
*CONN
*I TAUGATE_34:Z O
*I inst_291:A2 I
*I inst_257:A1 I
*I inst_601:A I
*I inst_152:A3 I
*CAP
1 TAUGATE_34:Z 0.4316
2 net_189:1 0.4734
3 net_189:2 0.0376
4 inst_291:A2 0.0972
5 net_189:3 0.3840
6 net_189:4 0.2434
7 inst_257:A1 0.3726
8 net_189:5 0.4443
9 net_189:6 0.1288
10 inst_601:A 0.3022
11 net_189:7 0.4814
12 net_189:8 0.1341
13 net_189:9 0.3915
14 net_189:10 0.0282
15 inst_152:A3 0.3089
*RES
2 TAUGATE_34:Z net_189:1 0.3594
3 net_189:1 net_189:2 0.0525
4 net_189:2 inst_291:A2 0.3248
5 net_189:2 net_189:3 0.2980
6 net_189:3 net_189:4 0.2454
7 net_189:4 inst_257:A1 0.4670
8 net_189:2 net_189:5 0.1405
9 net_189:5 net_189:6 0.0668
10 net_189:6 inst_601:A 0.3699
11 net_189:6 net_189:7 0.0253
12 net_189:7 net_189:8 0.3105
13 net_189:8 net_189:9 0.1881
14 net_189:9 net_189:10 0.2034
15 net_189:10 inst_152:A3 0.1592
*END

*D_NET net_132 8.7764
*CONN
*I TAUGATE_29:Z O
*I inst_637:A I
*I inst_289:A1 I
*I inst_213:A2 I
*I inst_211:A2 I
*I inst_262:A1 I
*I inst_265:A1 I
*I inst_280:A1 I
*I inst_491:A2 I
*CAP
1 TAUGATE_29:Z 0.2761
2 net_132:1 0.2288
3 net_132:2 0.0666
4 net_132:3 0.3854
5 net_132:4 0.3580
6 inst_265:A1 0.3774
7 net_132:5 0.0112
8 net_132:6 0.3530
9 inst_289:A1 0.1128
10 net_132:7 0.1620
11 net_132:8 0.0029
12 net_132:9 0.2883
13 net_132:10 0.1903
14 inst_213:A2 0.4381
15 net_132:11 0.0510
16 inst_211:A2 0.1600
17 net_132:12 0.3388
18 net_132:13 0.4657
19 net_132:14 0.3595
20 net_132:15 0.2471
21 net_132:16 0.0832
22 inst_262:A1 0.0580
23 net_132:17 0.4950
24 net_132:18 0.0413
25 net_132:19 0.4651
26 net_132:20 0.4065
27 inst_637:A 0.3164
28 net_132:21 0.2195
29 net_132:22 0.1533
30 net_132:23 0.4091
31 inst_280:A1 0.2613
32 net_132:24 0.1210
33 net_132:25 0.1733
34 net_132:26 0.1014
35 net_132:27 0.0283
36 net_132:28 0.2763
37 inst_491:A2 0.2945
*RES
2 TAUGATE_29:Z net_132:1 0.2731
3 net_132:1 net_132:2 0.1525
4 net_132:2 net_132:3 0.0518
5 net_132:3 net_132:4 0.2548
6 net_132:4 inst_265:A1 0.2154
7 net_132:1 net_132:5 0.2239
8 net_132:5 net_132:6 0.0917
9 net_132:6 inst_289:A1 0.4230
10 net_132:2 net_132:7 0.3484
11 net_132:7 net_132:8 0.0801
12 net_132:8 net_132:9 0.1392
13 net_132:9 net_132:10 0.1891
14 net_132:10 inst_213:A2 0.0464
15 net_132:9 net_132:11 0.1748
16 net_132:11 inst_211:A2 0.4787
17 net_132:3 net_132:12 0.3736
18 net_132:12 net_132:13 0.0395
19 net_132:13 net_132:14 0.3644
20 net_132:14 net_132:15 0.0829
21 net_132:15 net_132:16 0.1977
22 net_132:16 inst_262:A1 0.4694
23 net_132:13 net_132:17 0.3513
24 net_132:17 net_132:18 0.1165
25 net_132:18 net_132:19 0.0986
26 net_132:19 net_132:20 0.2243
27 net_132:20 inst_637:A 0.1286
28 net_132:17 net_132:21 0.3587
29 net_132:21 net_132:22 0.1869
30 net_132:22 net_132:23 0.4974
31 net_132:23 inst_280:A1 0.3047
32 net_132:6 net_132:24 0.3177
33 net_132:24 net_132:25 0.2101
34 net_132:25 net_132:26 0.3390
35 net_132:26 net_132:27 0.2046
36 net_132:27 net_132:28 0.3404
37 net_132:28 inst_491:A2 0.1317
*END

*D_NET net_526 8.4908
*CONN
*I TAUGATE_52:Z O
*I inst_393:A1 I
*I inst_410:A1 I
*I inst_304:A1 I
*I inst_314:A1 I
*I inst_326:A2 I
*I inst_421:A1 I
*I inst_302:A1 I
*I inst_303:A1 I
*CAP
1 TAUGATE_52:Z 0.0856
2 net_526:1 0.2821
3 net_526:2 0.3900
4 net_526:3 0.0557
5 net_526:4 0.1253
6 inst_421:A1 0.2716
7 net_526:5 0.2135
8 net_526:6 0.0419
9 net_526:7 0.2773
10 inst_410:A1 0.0903
11 net_526:8 0.3972
12 net_526:9 0.4228
13 net_526:10 0.2443
14 net_526:11 0.2458
15 inst_304:A1 0.3734
16 net_526:12 0.4436
17 inst_314:A1 0.1981
18 net_526:13 0.2490
19 net_526:14 0.0579
20 net_526:15 0.0423
21 net_526:16 0.2861
22 net_526:17 0.4278
23 inst_326:A2 0.3875
24 net_526:18 0.2438
25 net_526:19 0.2969
26 net_526:20 0.3091
27 net_526:21 0.5006
28 net_526:22 0.2264
29 inst_393:A1 0.3973
30 net_526:23 0.0562
31 net_526:24 0.0882
32 inst_302:A1 0.4386
33 net_526:25 0.1939
34 net_526:26 0.1095
35 inst_303:A1 0.0212
*RES
2 TAUGATE_52:Z net_526:1 0.3735
3 net_526:1 net_526:2 0.1079
4 net_526:2 net_526:3 0.3323
5 net_526:3 net_526:4 0.2907
6 net_526:4 inst_421:A1 0.0362
7 net_526:4 net_526:5 0.0485
8 net_526:5 net_526:6 0.4602
9 net_526:6 net_526:7 0.4262
10 net_526:7 inst_410:A1 0.2009
11 net_526:5 net_526:8 0.1567
12 net_526:8 net_526:9 0.1247
13 net_526:9 net_526:10 0.2439
14 net_526:10 net_526:11 0.2588
15 net_526:11 inst_304:A1 0.4474
16 net_526:8 net_526:12 0.3275
17 net_526:12 inst_314:A1 0.0169
18 net_526:11 net_526:13 0.4796
19 net_526:13 net_526:14 0.3740
20 net_526:14 net_526:15 0.1554
21 net_526:15 net_526:16 0.0209
22 net_526:16 net_526:17 0.4380
23 net_526:17 inst_326:A2 0.4130
24 net_526:11 net_526:18 0.2044
25 net_526:18 net_526:19 0.1531
26 net_526:19 net_526:20 0.3886
27 net_526:20 net_526:21 0.2618
28 net_526:21 net_526:22 0.2468
29 net_526:22 inst_393:A1 0.4002
30 net_526:17 net_526:23 0.2715
31 net_526:23 net_526:24 0.0199
32 net_526:24 inst_302:A1 0.4145
33 net_526:6 net_526:25 0.1417
34 net_526:25 net_526:26 0.2190
35 net_526:26 inst_303:A1 0.4826
*END

*D_NET net_436 1.4876
*CONN
*I TAUGATE_41:Z O
*I inst_103:A2 I
*CAP
1 TAUGATE_41:Z 0.4033
2 net_436:1 0.2540
3 net_436:2 0.0526
4 net_436:3 0.2388
5 net_436:4 0.1787
6 inst_103:A2 0.3603
*RES
2 TAUGATE_41:Z net_436:1 0.0603
3 net_436:1 net_436:2 0.0863
4 net_436:2 net_436:3 0.3102
5 net_436:3 net_436:4 0.1239
6 net_436:4 inst_103:A2 0.2473
*END

*D_NET TAUNET_35 1.8437
*CONN
*I inst_444:ZN O
*I TAUGATE_35:A I
*CAP
1 inst_444:ZN 0.4935
2 TAUNET_35:1 0.3995
3 TAUNET_35:2 0.4441
4 TAUNET_35:3 0.4218
5 TAUGATE_35:A 0.0848
*RES
2 inst_444:ZN TAUNET_35:1 0.0266
3 TAUNET_35:1 TAUNET_35:2 0.0274
4 TAUNET_35:2 TAUNET_35:3 0.4218
5 TAUNET_35:3 TAUGATE_35:A 0.2061
*END

*D_NET net_129 1.6754
*CONN
*I TAUGATE_57:Z O
*I inst_402:A1 I
*CAP
1 TAUGATE_57:Z 0.4583
2 net_129:1 0.0145
3 net_129:2 0.0725
4 net_129:3 0.4492
5 net_129:4 0.3124
6 inst_402:A1 0.3685
*RES
2 TAUGATE_57:Z net_129:1 0.4317
3 net_129:1 net_129:2 0.1801
4 net_129:2 net_129:3 0.2826
5 net_129:3 net_129:4 0.3420
6 net_129:4 inst_402:A1 0.0965
*END

*D_NET net_140 1.1961
*CONN
*I TAUGATE_51:Z O
*I inst_290:A2 I
*CAP
1 TAUGATE_51:Z 0.1304
2 net_140:1 0.4634
3 net_140:2 0.2869
4 net_140:3 0.1646
5 net_140:4 0.1182
6 inst_290:A2 0.0327
*RES
2 TAUGATE_51:Z net_140:1 0.0608
3 net_140:1 net_140:2 0.3721
4 net_140:2 net_140:3 0.4648
5 net_140:3 net_140:4 0.2376
6 net_140:4 inst_290:A2 0.1146
*END

*D_NET net_271 0.6447
*CONN
*I TAUGATE_38:Z O
*I inst_132:A3 I
*CAP
1 TAUGATE_38:Z 0.1439
2 net_271:1 0.2502
3 inst_132:A3 0.2506
*RES
2 TAUGATE_38:Z net_271:1 0.4486
3 net_271:1 inst_132:A3 0.0641
*END

*D_NET net_23 0.3299
*CONN
*I TAUGATE_15:Z O
*I inst_252:A1 I
*CAP
1 TAUGATE_15:Z 0.0079
2 net_23:1 0.2219
3 inst_252:A1 0.1001
*RES
2 TAUGATE_15:Z net_23:1 0.2747
3 net_23:1 inst_252:A1 0.1704
*END

*D_NET v13_D_19 0.1666
*CONN
*I TAUGATE_30:Z O
*P v13_D_19 O
*CAP
1 TAUGATE_30:Z 0.0121
2 v13_D_19:1 0.0267
3 v13_D_19 0.1278
*RES
2 TAUGATE_30:Z v13_D_19:1 0.1079
3 v13_D_19:1 v13_D_19 0.3621
*END

*D_NET net_620 2.0149
*CONN
*I TAUGATE_56:Z O
*I inst_192:A3 I
*CAP
1 TAUGATE_56:Z 0.3490
2 net_620:1 0.3195
3 net_620:2 0.4748
4 net_620:3 0.2505
5 net_620:4 0.2036
6 net_620:5 0.3990
7 inst_192:A3 0.0185
*RES
2 TAUGATE_56:Z net_620:1 0.3777
3 net_620:1 net_620:2 0.2437
4 net_620:2 net_620:3 0.3641
5 net_620:3 net_620:4 0.1411
6 net_620:4 net_620:5 0.2452
7 net_620:5 inst_192:A3 0.2723
*END

*D_NET TAUNET_46 0.3445
*CONN
*I inst_4:ZN O
*I TAUGATE_46:A I
*CAP
1 inst_4:ZN 0.2449
2 TAUNET_46:1 0.0917
3 TAUGATE_46:A 0.0078
*RES
2 inst_4:ZN TAUNET_46:1 0.0227
3 TAUNET_46:1 TAUGATE_46:A 0.0264
*END

*D_NET net_452 0.9773
*CONN
*I TAUGATE_17:Z O
*I inst_406:A2 I
*CAP
1 TAUGATE_17:Z 0.1906
2 net_452:1 0.0937
3 net_452:2 0.2944
4 inst_406:A2 0.3987
*RES
2 TAUGATE_17:Z net_452:1 0.0209
3 net_452:1 net_452:2 0.1182
4 net_452:2 inst_406:A2 0.1067
*END

*D_NET TAUNET_24 2.0282
*CONN
*I inst_646:ZN O
*I TAUGATE_24:A I
*CAP
1 inst_646:ZN 0.3672
2 TAUNET_24:1 0.1157
3 TAUNET_24:2 0.1901
4 TAUNET_24:3 0.2138
5 TAUNET_24:4 0.5008
6 TAUNET_24:5 0.2979
7 TAUGATE_24:A 0.3428
*RES
2 inst_646:ZN TAUNET_24:1 0.2325
3 TAUNET_24:1 TAUNET_24:2 0.2733
4 TAUNET_24:2 TAUNET_24:3 0.1266
5 TAUNET_24:3 TAUNET_24:4 0.3814
6 TAUNET_24:4 TAUNET_24:5 0.1363
7 TAUNET_24:5 TAUGATE_24:A 0.3277
*END

*D_NET TAUNET_16 1.7680
*CONN
*I inst_470:ZN O
*I TAUGATE_16:A I
*CAP
1 inst_470:ZN 0.4503
2 TAUNET_16:1 0.1603
3 TAUNET_16:2 0.4423
4 TAUNET_16:3 0.1159
5 TAUNET_16:4 0.4527
6 TAUGATE_16:A 0.1465
*RES
2 inst_470:ZN TAUNET_16:1 0.1463
3 TAUNET_16:1 TAUNET_16:2 0.4621
4 TAUNET_16:2 TAUNET_16:3 0.4065
5 TAUNET_16:3 TAUNET_16:4 0.0227
6 TAUNET_16:4 TAUGATE_16:A 0.2236
*END

*D_NET net_699 1.0395
*CONN
*I TAUGATE_44:Z O
*I inst_230:A1 I
*CAP
1 TAUGATE_44:Z 0.0715
2 net_699:1 0.1861
3 net_699:2 0.4367
4 inst_230:A1 0.3452
*RES
2 TAUGATE_44:Z net_699:1 0.0313
3 net_699:1 net_699:2 0.1217
4 net_699:2 inst_230:A1 0.0111
*END

*D_NET TAUNET_31 1.2561
*CONN
*I inst_21:ZN O
*I TAUGATE_31:A I
*CAP
1 inst_21:ZN 0.0613
2 TAUNET_31:1 0.4407
3 TAUNET_31:2 0.4978
4 TAUGATE_31:A 0.2563
*RES
2 inst_21:ZN TAUNET_31:1 0.2595
3 TAUNET_31:1 TAUNET_31:2 0.2603
4 TAUNET_31:2 TAUGATE_31:A 0.2874
*END

*D_NET TAUNET_25 1.0267
*CONN
*I inst_674:ZN O
*I TAUGATE_25:A I
*CAP
1 inst_674:ZN 0.2768
2 TAUNET_25:1 0.2053
3 TAUNET_25:2 0.2140
4 TAUGATE_25:A 0.3306
*RES
2 inst_674:ZN TAUNET_25:1 0.1569
3 TAUNET_25:1 TAUNET_25:2 0.2580
4 TAUNET_25:2 TAUGATE_25:A 0.2138
*END

*D_NET TAUNET_27 2.1838
*CONN
*I inst_294:ZN O
*I TAUGATE_27:A I
*CAP
1 inst_294:ZN 0.3806
2 TAUNET_27:1 0.4608
3 TAUNET_27:2 0.4692
4 TAUNET_27:3 0.4766
5 TAUNET_27:4 0.0589
6 TAUNET_27:5 0.0962
7 TAUGATE_27:A 0.2415
*RES
2 inst_294:ZN TAUNET_27:1 0.1750
3 TAUNET_27:1 TAUNET_27:2 0.4103
4 TAUNET_27:2 TAUNET_27:3 0.0845
5 TAUNET_27:3 TAUNET_27:4 0.1888
6 TAUNET_27:4 TAUNET_27:5 0.1436
7 TAUNET_27:5 TAUGATE_27:A 0.1762
*END

*D_NET net_741 0.3366
*CONN
*I TAUGATE_26:Z O
*I inst_225:A1 I
*CAP
1 TAUGATE_26:Z 0.0806
2 net_741:1 0.2069
3 inst_225:A1 0.0491
*RES
2 TAUGATE_26:Z net_741:1 0.4137
3 net_741:1 inst_225:A1 0.3046
*END

*D_NET TAUNET_28 1.0479
*CONN
*I inst_667:ZN O
*I TAUGATE_28:A I
*CAP
1 inst_667:ZN 0.2640
2 TAUNET_28:1 0.4110
3 TAUNET_28:2 0.0191
4 TAUGATE_28:A 0.3538
*RES
2 inst_667:ZN TAUNET_28:1 0.4300
3 TAUNET_28:1 TAUNET_28:2 0.3629
4 TAUNET_28:2 TAUGATE_28:A 0.0787
*END

*D_NET net_359 2.7962
*CONN
*I TAUGATE_25:Z O
*I inst_350:A1 I
*I inst_694:A I
*CAP
1 TAUGATE_25:Z 0.2971
2 net_359:1 0.5010
3 net_359:2 0.3538
4 net_359:3 0.4649
5 net_359:4 0.0482
6 net_359:5 0.1062
7 inst_350:A1 0.2963
8 net_359:6 0.0470
9 net_359:7 0.0745
10 net_359:8 0.1738
11 inst_694:A 0.4336
*RES
2 TAUGATE_25:Z net_359:1 0.4911
3 net_359:1 net_359:2 0.2002
4 net_359:2 net_359:3 0.2573
5 net_359:3 net_359:4 0.3761
6 net_359:4 net_359:5 0.0616
7 net_359:5 inst_350:A1 0.4298
8 net_359:3 net_359:6 0.4556
9 net_359:6 net_359:7 0.1284
10 net_359:7 net_359:8 0.0036
11 net_359:8 inst_694:A 0.1731
*END

*D_NET TAUNET_57 2.1141
*CONN
*I inst_490:ZN O
*I TAUGATE_57:A I
*CAP
1 inst_490:ZN 0.3095
2 TAUNET_57:1 0.4033
3 TAUNET_57:2 0.2734
4 TAUNET_57:3 0.3461
5 TAUNET_57:4 0.3729
6 TAUNET_57:5 0.0418
7 TAUGATE_57:A 0.3671
*RES
2 inst_490:ZN TAUNET_57:1 0.3815
3 TAUNET_57:1 TAUNET_57:2 0.1458
4 TAUNET_57:2 TAUNET_57:3 0.4915
5 TAUNET_57:3 TAUNET_57:4 0.0683
6 TAUNET_57:4 TAUNET_57:5 0.2135
7 TAUNET_57:5 TAUGATE_57:A 0.4484
*END

*D_NET net_52 1.8614
*CONN
*I TAUGATE_54:Z O
*I inst_578:A I
*I inst_252:A2 I
*I inst_582:A I
*CAP
1 TAUGATE_54:Z 0.1139
2 net_52:1 0.0861
3 inst_578:A 0.1477
4 net_52:2 0.2818
5 net_52:3 0.3290
6 inst_252:A2 0.1592
7 net_52:4 0.0096
8 net_52:5 0.4963
9 inst_582:A 0.2377
*RES
2 TAUGATE_54:Z net_52:1 0.4806
3 net_52:1 inst_578:A 0.3473
4 net_52:1 net_52:2 0.4236
5 net_52:2 net_52:3 0.3328
6 net_52:3 inst_252:A2 0.1906
7 net_52:2 net_52:4 0.2571
8 net_52:4 net_52:5 0.3610
9 net_52:5 inst_582:A 0.0042
*END

*D_NET net_632 1.5525
*CONN
*I TAUGATE_16:Z O
*I inst_475:A2 I
*CAP
1 TAUGATE_16:Z 0.3841
2 net_632:1 0.2352
3 net_632:2 0.3112
4 net_632:3 0.1345
5 net_632:4 0.4134
6 inst_475:A2 0.0741
*RES
2 TAUGATE_16:Z net_632:1 0.4290
3 net_632:1 net_632:2 0.4891
4 net_632:2 net_632:3 0.0621
5 net_632:3 net_632:4 0.2122
6 net_632:4 inst_475:A2 0.2034
*END

*D_NET net_357 0.9541
*CONN
*I TAUGATE_46:Z O
*I inst_428:A2 I
*CAP
1 TAUGATE_46:Z 0.2112
2 net_357:1 0.1106
3 net_357:2 0.0283
4 net_357:3 0.2644
5 inst_428:A2 0.3395
*RES
2 TAUGATE_46:Z net_357:1 0.4160
3 net_357:1 net_357:2 0.1311
4 net_357:2 net_357:3 0.1702
5 net_357:3 inst_428:A2 0.0535
*END

*D_NET TAUNET_37 1.0831
*CONN
*I inst_770:ZN O
*I TAUGATE_37:A I
*CAP
1 inst_770:ZN 0.2939
2 TAUNET_37:1 0.0520
3 TAUNET_37:2 0.1787
4 TAUNET_37:3 0.3277
5 TAUGATE_37:A 0.2308
*RES
2 inst_770:ZN TAUNET_37:1 0.1825
3 TAUNET_37:1 TAUNET_37:2 0.4154
4 TAUNET_37:2 TAUNET_37:3 0.4205
5 TAUNET_37:3 TAUGATE_37:A 0.1921
*END

*D_NET TAUNET_32 1.3427
*CONN
*I inst_415:ZN O
*I TAUGATE_32:A I
*CAP
1 inst_415:ZN 0.0500
2 TAUNET_32:1 0.2552
3 TAUNET_32:2 0.2397
4 TAUNET_32:3 0.3943
5 TAUNET_32:4 0.0450
6 TAUGATE_32:A 0.3586
*RES
2 inst_415:ZN TAUNET_32:1 0.1804
3 TAUNET_32:1 TAUNET_32:2 0.2132
4 TAUNET_32:2 TAUNET_32:3 0.3448
5 TAUNET_32:3 TAUNET_32:4 0.2539
6 TAUNET_32:4 TAUGATE_32:A 0.0169
*END

*D_NET TAUNET_38 0.6350
*CONN
*I inst_311:ZN O
*I TAUGATE_38:A I
*CAP
1 inst_311:ZN 0.3418
2 TAUNET_38:1 0.2232
3 TAUGATE_38:A 0.0700
*RES
2 inst_311:ZN TAUNET_38:1 0.3825
3 TAUNET_38:1 TAUGATE_38:A 0.4916
*END

*D_NET TAUNET_40 0.1950
*CONN
*I inst_78:ZN O
*I TAUGATE_40:A I
*CAP
1 inst_78:ZN 0.0722
2 TAUNET_40:1 0.0274
3 TAUGATE_40:A 0.0955
*RES
2 inst_78:ZN TAUNET_40:1 0.0758
3 TAUNET_40:1 TAUGATE_40:A 0.0730
*END

*D_NET TAUNET_20 1.0982
*CONN
*I inst_726:ZN O
*I TAUGATE_20:A I
*CAP
1 inst_726:ZN 0.1500
2 TAUNET_20:1 0.0605
3 TAUNET_20:2 0.1555
4 TAUNET_20:3 0.4347
5 TAUGATE_20:A 0.2976
*RES
2 inst_726:ZN TAUNET_20:1 0.3531
3 TAUNET_20:1 TAUNET_20:2 0.0316
4 TAUNET_20:2 TAUNET_20:3 0.1823
5 TAUNET_20:3 TAUGATE_20:A 0.0755
*END

*D_NET net_326 2.4382
*CONN
*I TAUGATE_43:Z O
*I inst_100:A1 I
*I inst_325:A1 I
*I inst_734:A I
*CAP
1 TAUGATE_43:Z 0.3515
2 net_326:1 0.4269
3 net_326:2 0.0493
4 net_326:3 0.0341
5 inst_325:A1 0.3020
6 net_326:4 0.3051
7 inst_100:A1 0.1197
8 net_326:5 0.3150
9 net_326:6 0.0137
10 net_326:7 0.2108
11 inst_734:A 0.3101
*RES
2 TAUGATE_43:Z net_326:1 0.3389
3 net_326:1 net_326:2 0.4000
4 net_326:2 net_326:3 0.0188
5 net_326:3 inst_325:A1 0.4709
6 net_326:2 net_326:4 0.2956
7 net_326:4 inst_100:A1 0.2210
8 net_326:1 net_326:5 0.0161
9 net_326:5 net_326:6 0.2047
10 net_326:6 net_326:7 0.3729
11 net_326:7 inst_734:A 0.0610
*END

*D_NET net_225 3.5226
*CONN
*I TAUGATE_45:Z O
*I inst_214:A1 I
*I inst_31:A2 I
*CAP
1 TAUGATE_45:Z 0.2910
2 net_225:1 0.3083
3 net_225:2 0.1250
4 net_225:3 0.3526
5 net_225:4 0.3715
6 inst_31:A2 0.3144
7 net_225:5 0.3118
8 net_225:6 0.4981
9 net_225:7 0.3134
10 net_225:8 0.4059
11 net_225:9 0.1396
12 inst_214:A1 0.0910
*RES
2 TAUGATE_45:Z net_225:1 0.3618
3 net_225:1 net_225:2 0.0820
4 net_225:2 net_225:3 0.2174
5 net_225:3 net_225:4 0.3638
6 net_225:4 inst_31:A2 0.4097
7 net_225:2 net_225:5 0.1278
8 net_225:5 net_225:6 0.3093
9 net_225:6 net_225:7 0.3342
10 net_225:7 net_225:8 0.2150
11 net_225:8 net_225:9 0.0109
12 net_225:9 inst_214:A1 0.1830
*END

*D_NET TAUNET_14 0.3175
*CONN
*I inst_363:ZN O
*I TAUGATE_14:A I
*CAP
1 inst_363:ZN 0.0712
2 TAUNET_14:1 0.1986
3 TAUGATE_14:A 0.0476
*RES
2 inst_363:ZN TAUNET_14:1 0.0521
3 TAUNET_14:1 TAUGATE_14:A 0.0546
*END

*D_NET net_69 1.7875
*CONN
*I TAUGATE_18:Z O
*I inst_513:A I
*CAP
1 TAUGATE_18:Z 0.2737
2 net_69:1 0.2677
3 net_69:2 0.2426
4 net_69:3 0.1466
5 net_69:4 0.2784
6 net_69:5 0.2008
7 inst_513:A 0.3776
*RES
2 TAUGATE_18:Z net_69:1 0.2937
3 net_69:1 net_69:2 0.0093
4 net_69:2 net_69:3 0.2822
5 net_69:3 net_69:4 0.4311
6 net_69:4 net_69:5 0.0309
7 net_69:5 inst_513:A 0.1138
*END

*D_NET net_543 1.6740
*CONN
*I TAUGATE_36:Z O
*I inst_139:A4 I
*CAP
1 TAUGATE_36:Z 0.3567
2 net_543:1 0.2336
3 net_543:2 0.3863
4 net_543:3 0.2365
5 net_543:4 0.1037
6 inst_139:A4 0.3572
*RES
2 TAUGATE_36:Z net_543:1 0.2211
3 net_543:1 net_543:2 0.2185
4 net_543:2 net_543:3 0.2266
5 net_543:3 net_543:4 0.2538
6 net_543:4 inst_139:A4 0.1297
*END

*D_NET net_411 1.5261
*CONN
*I TAUGATE_39:Z O
*I inst_390:A2 I
*CAP
1 TAUGATE_39:Z 0.2417
2 net_411:1 0.4262
3 net_411:2 0.3737
4 net_411:3 0.3015
5 inst_390:A2 0.1830
*RES
2 TAUGATE_39:Z net_411:1 0.3035
3 net_411:1 net_411:2 0.4053
4 net_411:2 net_411:3 0.0863
5 net_411:3 inst_390:A2 0.2362
*END

*D_NET TAUNET_49 1.0858
*CONN
*I inst_37:ZN O
*I TAUGATE_49:A I
*CAP
1 inst_37:ZN 0.0277
2 TAUNET_49:1 0.2912
3 TAUNET_49:2 0.1111
4 TAUNET_49:3 0.3711
5 TAUNET_49:4 0.0512
6 TAUNET_49:5 0.1351
7 TAUGATE_49:A 0.0984
*RES
2 inst_37:ZN TAUNET_49:1 0.0368
3 TAUNET_49:1 TAUNET_49:2 0.4376
4 TAUNET_49:2 TAUNET_49:3 0.1423
5 TAUNET_49:3 TAUNET_49:4 0.1283
6 TAUNET_49:4 TAUNET_49:5 0.1146
7 TAUNET_49:5 TAUGATE_49:A 0.3234
*END

*D_NET net_141 2.5287
*CONN
*I TAUGATE_37:Z O
*I inst_264:A2 I
*I inst_294:A1 I
*CAP
1 TAUGATE_37:Z 0.4832
2 net_141:1 0.3781
3 net_141:2 0.3766
4 net_141:3 0.0185
5 inst_294:A1 0.3877
6 net_141:4 0.2164
7 net_141:5 0.4372
8 net_141:6 0.1158
9 inst_264:A2 0.1153
*RES
2 TAUGATE_37:Z net_141:1 0.1588
3 net_141:1 net_141:2 0.3738
4 net_141:2 net_141:3 0.4556
5 net_141:3 inst_294:A1 0.1835
6 net_141:2 net_141:4 0.3810
7 net_141:4 net_141:5 0.1100
8 net_141:5 net_141:6 0.1662
9 net_141:6 inst_264:A2 0.3178
*END

*D_NET net_196 2.4376
*CONN
*I TAUGATE_12:Z O
*I inst_38:A3 I
*I inst_655:A I
*CAP
1 TAUGATE_12:Z 0.2497
2 net_196:1 0.2343
3 net_196:2 0.0981
4 net_196:3 0.3461
5 net_196:4 0.2382
6 net_196:5 0.4109
7 inst_655:A 0.0945
8 net_196:6 0.4527
9 inst_38:A3 0.3131
*RES
2 TAUGATE_12:Z net_196:1 0.2326
3 net_196:1 net_196:2 0.0121
4 net_196:2 net_196:3 0.2674
5 net_196:3 net_196:4 0.2072
6 net_196:4 net_196:5 0.0414
7 net_196:5 inst_655:A 0.2455
8 net_196:2 net_196:6 0.4392
9 net_196:6 inst_38:A3 0.4048
*END

*D_NET net_83 1.7566
*CONN
*I TAUGATE_20:Z O
*I inst_270:A1 I
*CAP
1 TAUGATE_20:Z 0.3283
2 net_83:1 0.4199
3 net_83:2 0.3736
4 net_83:3 0.3306
5 inst_270:A1 0.3042
*RES
2 TAUGATE_20:Z net_83:1 0.1317
3 net_83:1 net_83:2 0.1481
4 net_83:2 net_83:3 0.2485
5 net_83:3 inst_270:A1 0.2201
*END

*D_NET TAUNET_50 0.7087
*CONN
*I inst_645:ZN O
*I TAUGATE_50:A I
*CAP
1 inst_645:ZN 0.3013
2 TAUNET_50:1 0.0262
3 TAUGATE_50:A 0.3812
*RES
2 inst_645:ZN TAUNET_50:1 0.0656
3 TAUNET_50:1 TAUGATE_50:A 0.1550
*END

*D_NET TAUNET_23 1.3180
*CONN
*I inst_778:ZN O
*I TAUGATE_23:A I
*CAP
1 inst_778:ZN 0.1418
2 TAUNET_23:1 0.3805
3 TAUNET_23:2 0.2523
4 TAUNET_23:3 0.0497
5 TAUGATE_23:A 0.4938
*RES
2 inst_778:ZN TAUNET_23:1 0.3913
3 TAUNET_23:1 TAUNET_23:2 0.2131
4 TAUNET_23:2 TAUNET_23:3 0.3201
5 TAUNET_23:3 TAUGATE_23:A 0.0320
*END

*D_NET net_677 2.1105
*CONN
*I TAUGATE_59:Z O
*I inst_180:A1 I
*CAP
1 TAUGATE_59:Z 0.3378
2 net_677:1 0.2454
3 net_677:2 0.4527
4 net_677:3 0.2663
5 net_677:4 0.3641
6 net_677:5 0.1740
7 inst_180:A1 0.2701
*RES
2 TAUGATE_59:Z net_677:1 0.3351
3 net_677:1 net_677:2 0.4105
4 net_677:2 net_677:3 0.3004
5 net_677:3 net_677:4 0.3665
6 net_677:4 net_677:5 0.1341
7 net_677:5 inst_180:A1 0.0859
*END

*D_NET TAUNET_39 0.5333
*CONN
*I inst_131:ZN O
*I TAUGATE_39:A I
*CAP
1 inst_131:ZN 0.3812
2 TAUNET_39:1 0.1227
3 TAUGATE_39:A 0.0294
*RES
2 inst_131:ZN TAUNET_39:1 0.0059
3 TAUNET_39:1 TAUGATE_39:A 0.3552
*END

*D_NET net_173 2.1906
*CONN
*I TAUGATE_40:Z O
*I inst_108:A1 I
*CAP
1 TAUGATE_40:Z 0.1840
2 net_173:1 0.3573
3 net_173:2 0.4559
4 net_173:3 0.3575
5 net_173:4 0.1715
6 net_173:5 0.3050
7 inst_108:A1 0.3594
*RES
2 TAUGATE_40:Z net_173:1 0.4902
3 net_173:1 net_173:2 0.4716
4 net_173:2 net_173:3 0.2112
5 net_173:3 net_173:4 0.1762
6 net_173:4 net_173:5 0.1166
7 net_173:5 inst_108:A1 0.1660
*END

*D_NET TAUNET_51 1.7572
*CONN
*I inst_263:ZN O
*I TAUGATE_51:A I
*CAP
1 inst_263:ZN 0.2908
2 TAUNET_51:1 0.3308
3 TAUNET_51:2 0.4080
4 TAUNET_51:3 0.4669
5 TAUNET_51:4 0.1932
6 TAUGATE_51:A 0.0675
*RES
2 inst_263:ZN TAUNET_51:1 0.0053
3 TAUNET_51:1 TAUNET_51:2 0.1459
4 TAUNET_51:2 TAUNET_51:3 0.0437
5 TAUNET_51:3 TAUNET_51:4 0.4598
6 TAUNET_51:4 TAUGATE_51:A 0.3838
*END

*D_NET net_736 2.5348
*CONN
*I TAUGATE_33:Z O
*I inst_207:A1 I
*CAP
1 TAUGATE_33:Z 0.3263
2 net_736:1 0.4683
3 net_736:2 0.1543
4 net_736:3 0.4873
5 net_736:4 0.1669
6 net_736:5 0.4800
7 inst_207:A1 0.4518
*RES
2 TAUGATE_33:Z net_736:1 0.0570
3 net_736:1 net_736:2 0.4909
4 net_736:2 net_736:3 0.0572
5 net_736:3 net_736:4 0.5008
6 net_736:4 net_736:5 0.1013
7 net_736:5 inst_207:A1 0.2457
*END

*D_NET TAUNET_19 2.1229
*CONN
*I inst_522:ZN O
*I TAUGATE_19:A I
*CAP
1 inst_522:ZN 0.2594
2 TAUNET_19:1 0.4074
3 TAUNET_19:2 0.4309
4 TAUNET_19:3 0.4474
5 TAUNET_19:4 0.2931
6 TAUGATE_19:A 0.2848
*RES
2 inst_522:ZN TAUNET_19:1 0.2246
3 TAUNET_19:1 TAUNET_19:2 0.3320
4 TAUNET_19:2 TAUNET_19:3 0.3870
5 TAUNET_19:3 TAUNET_19:4 0.3663
6 TAUNET_19:4 TAUGATE_19:A 0.1512
*END

*D_NET TAUNET_34 2.3961
*CONN
*I inst_67:ZN O
*I TAUGATE_34:A I
*CAP
1 inst_67:ZN 0.4493
2 TAUNET_34:1 0.2866
3 TAUNET_34:2 0.1873
4 TAUNET_34:3 0.1599
5 TAUNET_34:4 0.3589
6 TAUNET_34:5 0.4697
7 TAUGATE_34:A 0.4844
*RES
2 inst_67:ZN TAUNET_34:1 0.0401
3 TAUNET_34:1 TAUNET_34:2 0.2861
4 TAUNET_34:2 TAUNET_34:3 0.1883
5 TAUNET_34:3 TAUNET_34:4 0.3075
6 TAUNET_34:4 TAUNET_34:5 0.0604
7 TAUNET_34:5 TAUGATE_34:A 0.3908
*END

*D_NET TAUNET_54 1.0274
*CONN
*I inst_565:ZN O
*I TAUGATE_54:A I
*CAP
1 inst_565:ZN 0.4162
2 TAUNET_54:1 0.0491
3 TAUNET_54:2 0.3511
4 TAUGATE_54:A 0.2111
*RES
2 inst_565:ZN TAUNET_54:1 0.3010
3 TAUNET_54:1 TAUNET_54:2 0.1515
4 TAUNET_54:2 TAUGATE_54:A 0.0492
*END

*D_NET TAUNET_44 1.1227
*CONN
*I inst_30:ZN O
*I TAUGATE_44:A I
*CAP
1 inst_30:ZN 0.0711
2 TAUNET_44:1 0.0021
3 TAUNET_44:2 0.2080
4 TAUNET_44:3 0.3529
5 TAUGATE_44:A 0.4886
*RES
2 inst_30:ZN TAUNET_44:1 0.3648
3 TAUNET_44:1 TAUNET_44:2 0.4404
4 TAUNET_44:2 TAUNET_44:3 0.3187
5 TAUNET_44:3 TAUGATE_44:A 0.4272
*END

*D_NET net_456 4.3999
*CONN
*I TAUGATE_19:Z O
*I inst_385:A1 I
*I inst_706:A I
*I inst_702:A I
*I inst_705:A I
*CAP
1 TAUGATE_19:Z 0.4026
2 net_456:1 0.1803
3 net_456:2 0.0882
4 net_456:3 0.2924
5 inst_385:A1 0.4780
6 net_456:4 0.0762
7 net_456:5 0.1986
8 net_456:6 0.3922
9 net_456:7 0.3950
10 net_456:8 0.2666
11 inst_706:A 0.4255
12 net_456:9 0.3579
13 net_456:10 0.1300
14 inst_702:A 0.3795
15 net_456:11 0.0048
16 net_456:12 0.3126
17 inst_705:A 0.0195
*RES
2 TAUGATE_19:Z net_456:1 0.3510
3 net_456:1 net_456:2 0.1182
4 net_456:2 net_456:3 0.2614
5 net_456:3 inst_385:A1 0.1530
6 net_456:2 net_456:4 0.4671
7 net_456:4 net_456:5 0.2972
8 net_456:5 net_456:6 0.3936
9 net_456:6 net_456:7 0.4880
10 net_456:7 net_456:8 0.4169
11 net_456:8 inst_706:A 0.3167
12 net_456:6 net_456:9 0.2362
13 net_456:9 net_456:10 0.1908
14 net_456:10 inst_702:A 0.1996
15 net_456:7 net_456:11 0.0541
16 net_456:11 net_456:12 0.3700
17 net_456:12 inst_705:A 0.3260
*END

*D_NET net_423 1.8468
*CONN
*I TAUGATE_14:Z O
*I inst_413:A2 I
*CAP
1 TAUGATE_14:Z 0.4948
2 net_423:1 0.1954
3 net_423:2 0.0063
4 net_423:3 0.4904
5 net_423:4 0.0915
6 net_423:5 0.4619
7 inst_413:A2 0.1065
*RES
2 TAUGATE_14:Z net_423:1 0.1990
3 net_423:1 net_423:2 0.2576
4 net_423:2 net_423:3 0.0690
5 net_423:3 net_423:4 0.2231
6 net_423:4 net_423:5 0.2934
7 net_423:5 inst_413:A2 0.0661
*END

*D_NET net_209 2.3717
*CONN
*I TAUGATE_24:Z O
*I inst_339:A2 I
*I inst_662:A I
*CAP
1 TAUGATE_24:Z 0.1011
2 net_209:1 0.0765
3 net_209:2 0.1980
4 net_209:3 0.3226
5 inst_339:A2 0.1282
6 net_209:4 0.4631
7 net_209:5 0.0407
8 net_209:6 0.4130
9 net_209:7 0.3462
10 net_209:8 0.0714
11 inst_662:A 0.2110
*RES
2 TAUGATE_24:Z net_209:1 0.2766
3 net_209:1 net_209:2 0.4045
4 net_209:2 net_209:3 0.4267
5 net_209:3 inst_339:A2 0.4596
6 net_209:3 net_209:4 0.2588
7 net_209:4 net_209:5 0.0339
8 net_209:5 net_209:6 0.0519
9 net_209:6 net_209:7 0.4874
10 net_209:7 net_209:8 0.0374
11 net_209:8 inst_662:A 0.2489
*END

*D_NET TAUNET_43 1.1295
*CONN
*I inst_618:ZN O
*I TAUGATE_43:A I
*CAP
1 inst_618:ZN 0.0346
2 TAUNET_43:1 0.0645
3 TAUNET_43:2 0.3416
4 TAUNET_43:3 0.4099
5 TAUNET_43:4 0.1540
6 TAUNET_43:5 0.0325
7 TAUGATE_43:A 0.0924
*RES
2 inst_618:ZN TAUNET_43:1 0.1850
3 TAUNET_43:1 TAUNET_43:2 0.1516
4 TAUNET_43:2 TAUNET_43:3 0.2746
5 TAUNET_43:3 TAUNET_43:4 0.4228
6 TAUNET_43:4 TAUNET_43:5 0.1417
7 TAUNET_43:5 TAUGATE_43:A 0.3754
*END

*D_NET TAUNET_56 0.9794
*CONN
*I inst_459:ZN O
*I TAUGATE_56:A I
*CAP
1 inst_459:ZN 0.0068
2 TAUNET_56:1 0.4220
3 TAUNET_56:2 0.4926
4 TAUGATE_56:A 0.0580
*RES
2 inst_459:ZN TAUNET_56:1 0.3810
3 TAUNET_56:1 TAUNET_56:2 0.2195
4 TAUNET_56:2 TAUGATE_56:A 0.2042
*END

*D_NET TAUNET_55 1.5343
*CONN
*I inst_335:ZN O
*I TAUGATE_55:A I
*CAP
1 inst_335:ZN 0.2656
2 TAUNET_55:1 0.1336
3 TAUNET_55:2 0.4042
4 TAUNET_55:3 0.0451
5 TAUNET_55:4 0.2391
6 TAUNET_55:5 0.0321
7 TAUGATE_55:A 0.4146
*RES
2 inst_335:ZN TAUNET_55:1 0.0857
3 TAUNET_55:1 TAUNET_55:2 0.2654
4 TAUNET_55:2 TAUNET_55:3 0.2245
5 TAUNET_55:3 TAUNET_55:4 0.4797
6 TAUNET_55:4 TAUNET_55:5 0.0551
7 TAUNET_55:5 TAUGATE_55:A 0.1877
*END

*D_NET TAUNET_11 0.9500
*CONN
*I inst_12:ZN O
*I TAUGATE_11:A I
*CAP
1 inst_12:ZN 0.4235
2 TAUNET_11:1 0.2143
3 TAUNET_11:2 0.0701
4 TAUGATE_11:A 0.2421
*RES
2 inst_12:ZN TAUNET_11:1 0.4634
3 TAUNET_11:1 TAUNET_11:2 0.2497
4 TAUNET_11:2 TAUGATE_11:A 0.2766
*END

*D_NET TAUNET_33 1.5648
*CONN
*I inst_249:ZN O
*I TAUGATE_33:A I
*CAP
1 inst_249:ZN 0.2353
2 TAUNET_33:1 0.0722
3 TAUNET_33:2 0.3539
4 TAUNET_33:3 0.3446
5 TAUNET_33:4 0.0192
6 TAUNET_33:5 0.1341
7 TAUGATE_33:A 0.4054
*RES
2 inst_249:ZN TAUNET_33:1 0.3681
3 TAUNET_33:1 TAUNET_33:2 0.4419
4 TAUNET_33:2 TAUNET_33:3 0.1561
5 TAUNET_33:3 TAUNET_33:4 0.1347
6 TAUNET_33:4 TAUNET_33:5 0.0224
7 TAUNET_33:5 TAUGATE_33:A 0.3933
*END

*D_NET v13_D_20 1.1138
*CONN
*I TAUGATE_49:Z O
*P v13_D_20 O
*CAP
1 TAUGATE_49:Z 0.4154
2 v13_D_20:1 0.1713
3 v13_D_20:2 0.2153
4 v13_D_20 0.3119
*RES
2 TAUGATE_49:Z v13_D_20:1 0.4918
3 v13_D_20:1 v13_D_20:2 0.3583
4 v13_D_20:2 v13_D_20 0.0251
*END

*D_NET TAUNET_22 1.8945
*CONN
*I inst_40:ZN O
*I TAUGATE_22:A I
*CAP
1 inst_40:ZN 0.2242
2 TAUNET_22:1 0.4589
3 TAUNET_22:2 0.0098
4 TAUNET_22:3 0.3264
5 TAUNET_22:4 0.2846
6 TAUNET_22:5 0.4721
7 TAUGATE_22:A 0.1185
*RES
2 inst_40:ZN TAUNET_22:1 0.4585
3 TAUNET_22:1 TAUNET_22:2 0.3703
4 TAUNET_22:2 TAUNET_22:3 0.0365
5 TAUNET_22:3 TAUNET_22:4 0.4409
6 TAUNET_22:4 TAUNET_22:5 0.4335
7 TAUNET_22:5 TAUGATE_22:A 0.3158
*END

*D_NET TAUNET_41 1.4639
*CONN
*I inst_99:ZN O
*I TAUGATE_41:A I
*CAP
1 inst_99:ZN 0.4798
2 TAUNET_41:1 0.1778
3 TAUNET_41:2 0.3155
4 TAUGATE_41:A 0.4909
*RES
2 inst_99:ZN TAUNET_41:1 0.2285
3 TAUNET_41:1 TAUNET_41:2 0.2293
4 TAUNET_41:2 TAUGATE_41:A 0.4514
*END

*D_NET TAUNET_30 1.0327
*CONN
*I inst_457:ZN O
*I TAUGATE_30:A I
*CAP
1 inst_457:ZN 0.3442
2 TAUNET_30:1 0.2112
3 TAUNET_30:2 0.3238
4 TAUGATE_30:A 0.1536
*RES
2 inst_457:ZN TAUNET_30:1 0.2744
3 TAUNET_30:1 TAUNET_30:2 0.3973
4 TAUNET_30:2 TAUGATE_30:A 0.0682
*END

*D_NET TAUNET_58 0.9480
*CONN
*I inst_299:ZN O
*I TAUGATE_58:A I
*CAP
1 inst_299:ZN 0.2235
2 TAUNET_58:1 0.2665
3 TAUGATE_58:A 0.4580
*RES