*SPEF "IEEE 1481-1998"
*DESIGN "changes"
*DATE "Tue Dec 02 20:01:16 2014"
*VENDOR "TAU 2015 Contest"
*PROGRAM "Benchmark Parasitic Generator"
*VERSION "0.0"
*DESIGN_FLOW "NETLIST_TYPE_VERILOG"
*DIVIDER /
*DELIMITER :
*BUS_DELIMITER [ ]
*T_UNIT 1 PS
*C_UNIT 1 FF
*R_UNIT 1 KOHM
*L_UNIT 1 UH

*D_NET net_174 1.7439
*CONN
*I inst_649:ZN O
*I inst_160:A1 I
*CAP
1 inst_649:ZN 0.2611
2 net_174:1 0.4098
3 net_174:2 0.5009
4 net_174:3 0.2843
5 inst_160:A1 0.2878
*RES
2 inst_649:ZN net_174:1 0.1659
3 net_174:1 net_174:2 0.2742
4 net_174:2 net_174:3 0.3494
5 net_174:3 inst_160:A1 0.1485
*END

*D_NET net_24 3.1207
*CONN
*I inst_64:ZN O
*I inst_720:A I
*I inst_14:A2 I
*I inst_239:A2 I
*CAP
1 inst_64:ZN 0.2110
2 net_24:1 0.3070
3 net_24:2 0.3583
4 net_24:3 0.1395
5 net_24:4 0.0646
6 net_24:5 0.0794
7 inst_14:A2 0.2161
8 net_24:6 0.2440
9 net_24:7 0.0332
10 inst_720:A 0.0406
11 net_24:8 0.3706
12 net_24:9 0.0740
13 net_24:10 0.4871
14 inst_239:A2 0.4951
*RES
2 inst_64:ZN net_24:1 0.1614
3 net_24:1 net_24:2 0.3312
4 net_24:2 net_24:3 0.3755
5 net_24:3 net_24:4 0.4644
6 net_24:4 net_24:5 0.4559
7 net_24:5 inst_14:A2 0.4050
8 net_24:2 net_24:6 0.2732
9 net_24:6 net_24:7 0.0073
10 net_24:7 inst_720:A 0.1308
11 net_24:2 net_24:8 0.4125
12 net_24:8 net_24:9 0.0565
13 net_24:9 net_24:10 0.1285
14 net_24:10 inst_239:A2 0.0292
*END

*D_NET net_126 2.3577
*CONN
*I inst_631:ZN O
*I inst_356:A1 I
*CAP
1 inst_631:ZN 0.4507
2 net_126:1 0.3995
3 net_126:2 0.3845
4 net_126:3 0.4708
5 net_126:4 0.3056
6 inst_356:A1 0.3464
*RES
2 inst_631:ZN net_126:1 0.0305
3 net_126:1 net_126:2 0.2383
4 net_126:2 net_126:3 0.4020
5 net_126:3 net_126:4 0.2529
6 net_126:4 inst_356:A1 0.2665
*END

*D_NET net_638 0.9086
*CONN
*I inst_473:ZN O
*I inst_481:A1 I
*CAP
1 inst_473:ZN 0.1977
2 net_638:1 0.3276
3 inst_481:A1 0.3833
*RES
2 inst_473:ZN net_638:1 0.3292
3 net_638:1 inst_481:A1 0.0716
*END

*D_NET net_274 4.4293
*CONN
*I inst_769:ZN O
*I inst_313:A2 I
*I inst_13:A2 I
*I inst_250:A2 I
*I inst_289:A2 I
*CAP
1 inst_769:ZN 0.1922
2 net_274:1 0.1322
3 net_274:2 0.1905
4 net_274:3 0.4017
5 inst_13:A2 0.4680
6 net_274:4 0.1868
7 net_274:5 0.4889
8 inst_313:A2 0.0703
9 net_274:6 0.3990
10 inst_250:A2 0.4035
11 net_274:7 0.4976
12 net_274:8 0.3591
13 net_274:9 0.2780
14 net_274:10 0.2022
15 inst_289:A2 0.1593
*RES
2 inst_769:ZN net_274:1 0.2976
3 net_274:1 net_274:2 0.2331
4 net_274:2 net_274:3 0.2927
5 net_274:3 inst_13:A2 0.3943
6 net_274:2 net_274:4 0.3298
7 net_274:4 net_274:5 0.4131
8 net_274:5 inst_313:A2 0.3310
9 net_274:2 net_274:6 0.0219
10 net_274:6 inst_250:A2 0.0830
11 net_274:2 net_274:7 0.4382
12 net_274:7 net_274:8 0.3498
13 net_274:8 net_274:9 0.4055
14 net_274:9 net_274:10 0.4519
15 net_274:10 inst_289:A2 0.4658
*END

