*SPEF "IEEE 1481-1998"
*DESIGN "changes"
*DATE "Tue Dec 02 19:59:54 2014"
*VENDOR "TAU 2015 Contest"
*PROGRAM "Benchmark Parasitic Generator"
*VERSION "0.0"
*DESIGN_FLOW "NETLIST_TYPE_VERILOG"
*DIVIDER /
*DELIMITER :
*BUS_DELIMITER [ ]
*T_UNIT 1 PS
*C_UNIT 1 FF
*R_UNIT 1 KOHM
*L_UNIT 1 UH

*D_NET TAUNET_4 1.7439
*CONN
*I inst_31:ZN O
*I TAUGATE_4:A I
*CAP
1 inst_31:ZN 0.2611
2 TAUNET_4:1 0.4098
3 TAUNET_4:2 0.5009
4 TAUNET_4:3 0.2843
5 TAUGATE_4:A 0.2878
*RES
2 inst_31:ZN TAUNET_4:1 0.1659
3 TAUNET_4:1 TAUNET_4:2 0.2742
4 TAUNET_4:2 TAUNET_4:3 0.3494
5 TAUNET_4:3 TAUGATE_4:A 0.1485
*END

*D_NET TAUNET_2 1.3760
*CONN
*I inst_5:ZN O
*I TAUGATE_2:A I
*CAP
1 inst_5:ZN 0.2110
2 TAUNET_2:1 0.3070
3 TAUNET_2:2 0.3583
4 TAUNET_2:3 0.1395
5 TAUNET_2:4 0.0646
6 TAUNET_2:5 0.0794
7 TAUGATE_2:A 0.2161
*RES
2 inst_5:ZN TAUNET_2:1 0.1614
3 TAUNET_2:1 TAUNET_2:2 0.3312
4 TAUNET_2:2 TAUNET_2:3 0.3755
5 TAUNET_2:3 TAUNET_2:4 0.4644
6 TAUNET_2:4 TAUNET_2:5 0.4559
7 TAUNET_2:5 TAUGATE_2:A 0.4050
*END

*D_NET net_451 4.1543
*CONN
*I TAUGATE_2:Z O
*I inst_494:A2 I
*I inst_781:A1 I
*I inst_179:A3 I
*CAP
1 TAUGATE_2:Z 0.1670
2 net_451:1 0.2440
3 net_451:2 0.0332
4 inst_494:A2 0.0406
5 net_451:3 0.3706
6 net_451:4 0.0740
7 net_451:5 0.4871
8 inst_781:A1 0.4951
9 net_451:6 0.3356
10 net_451:7 0.3995
11 net_451:8 0.3845
12 net_451:9 0.4708
13 net_451:10 0.3056
14 inst_179:A3 0.3464
*RES
2 TAUGATE_2:Z net_451:1 0.2732
3 net_451:1 net_451:2 0.0073
4 net_451:2 inst_494:A2 0.1308
5 net_451:1 net_451:3 0.4125
6 net_451:3 net_451:4 0.0565
7 net_451:4 net_451:5 0.1285
8 net_451:5 inst_781:A1 0.0292
9 net_451:3 net_451:6 0.0305
10 net_451:6 net_451:7 0.2383
11 net_451:7 net_451:8 0.4020
12 net_451:8 net_451:9 0.2529
13 net_451:9 net_451:10 0.2665
14 net_451:10 inst_179:A3 0.4354
*END

*D_NET TAUNET_3 1.2788
*CONN
*I inst_442:ZN O
*I TAUGATE_3:A I
*CAP
1 inst_442:ZN 0.0788
2 TAUNET_3:1 0.3833
3 TAUNET_3:2 0.3292
4 TAUNET_3:3 0.0716
5 TAUNET_3:4 0.2236
6 TAUGATE_3:A 0.1922
*RES
2 inst_442:ZN TAUNET_3:1 0.2805
3 TAUNET_3:1 TAUNET_3:2 0.1322
4 TAUNET_3:2 TAUNET_3:3 0.1905
5 TAUNET_3:3 TAUNET_3:4 0.4017
6 TAUNET_3:4 TAUGATE_3:A 0.4680
*END

*D_NET net_720 1.2308
*CONN
*I TAUGATE_3:Z O
*I inst_141:A1 I
*CAP
1 TAUGATE_3:Z 0.2331
2 net_720:1 0.3943
3 net_720:2 0.2211
4 net_720:3 0.1955
5 inst_141:A1 0.1868
*RES
2 TAUGATE_3:Z net_720:1 0.4889
3 net_720:1 net_720:2 0.0703
4 net_720:2 net_720:3 0.3298
5 net_720:3 inst_141:A1 0.4131
*END

*D_NET net_728 1.4221
*CONN
*I TAUGATE_4:Z O
*I inst_62:A1 I
*CAP
1 TAUGATE_4:Z 0.2621
2 net_728:1 0.1808
3 net_728:2 0.0717
4 net_728:3 0.3990
5 net_728:4 0.4035
6 net_728:5 0.0219
7 inst_62:A1 0.0830
*RES
2 TAUGATE_4:Z net_728:1 0.4539
3 net_728:1 net_728:2 0.1250
4 net_728:2 net_728:3 0.3196
5 net_728:3 net_728:4 0.4976
6 net_728:4 net_728:5 0.3591
7 net_728:5 inst_62:A1 0.2780
*END

