*SPEF "IEEE 1481-1998"
*DESIGN "changes"
*DATE "Tue Dec 02 20:01:16 2014"
*VENDOR "TAU 2015 Contest"
*PROGRAM "Benchmark Parasitic Generator"
*VERSION "0.0"
*DESIGN_FLOW "NETLIST_TYPE_VERILOG"
*DIVIDER /
*DELIMITER :
*BUS_DELIMITER [ ]
*T_UNIT 1 PS
*C_UNIT 1 FF
*R_UNIT 1 KOHM
*L_UNIT 1 UH

*D_NET net_215 3.0173
*CONN
*I TAUGATE_325:Z O
*I inst_664:A I
*I inst_318:A2 I
*CAP
1 TAUGATE_325:Z 0.2611
2 net_215:1 0.4098
3 net_215:2 0.5009
4 net_215:3 0.2843
5 inst_664:A 0.2878
6 net_215:4 0.4685
7 net_215:5 0.3070
8 net_215:6 0.3583
9 inst_318:A2 0.1395
*RES
2 TAUGATE_325:Z net_215:1 0.1659
3 net_215:1 net_215:2 0.2742
4 net_215:2 net_215:3 0.3494
5 net_215:3 inst_664:A 0.1485
6 net_215:3 net_215:4 0.0646
7 net_215:4 net_215:5 0.0794
8 net_215:5 net_215:6 0.2161
9 net_215:6 inst_318:A2 0.1614
*END

*D_NET TAUNET_275 1.8183
*CONN
*I inst_31:ZN O
*I TAUGATE_275:A I
*CAP
1 inst_31:ZN 0.3755
2 TAUNET_275:1 0.4559
3 TAUNET_275:2 0.4050
4 TAUNET_275:3 0.0154
5 TAUNET_275:4 0.1670
6 TAUNET_275:5 0.1555
7 TAUGATE_275:A 0.2440
*RES
2 inst_31:ZN TAUNET_275:1 0.0332
3 TAUNET_275:1 TAUNET_275:2 0.0406
4 TAUNET_275:2 TAUNET_275:3 0.2732
5 TAUNET_275:3 TAUNET_275:4 0.0073
6 TAUNET_275:4 TAUNET_275:5 0.1308
7 TAUNET_275:5 TAUGATE_275:A 0.1374
*END

*D_NET net_416 1.3529
*CONN
*I TAUGATE_268:Z O
*I inst_135:A1 I
*CAP
1 TAUGATE_268:Z 0.3706
2 net_416:1 0.4871
3 inst_135:A1 0.4951
*RES
2 TAUGATE_268:Z net_416:1 0.4125
3 net_416:1 inst_135:A1 0.0565
*END

*D_NET TAUNET_114 1.5997
*CONN
*I inst_766:ZN O
*I TAUGATE_114:A I
*CAP
1 inst_766:ZN 0.0292
2 TAUNET_114:1 0.4507
3 TAUNET_114:2 0.3356
4 TAUNET_114:3 0.3995
5 TAUGATE_114:A 0.3845
*RES
2 inst_766:ZN TAUNET_114:1 0.4708
3 TAUNET_114:1 TAUNET_114:2 0.3056
4 TAUNET_114:2 TAUNET_114:3 0.3464
5 TAUNET_114:3 TAUGATE_114:A 0.0305
*END

*D_NET TAUNET_885 1.3804
*CONN
*I inst_618:ZN O
*I TAUGATE_885:A I
*CAP
1 inst_618:ZN 0.4020
2 TAUNET_885:1 0.2665
3 TAUNET_885:2 0.4354
4 TAUNET_885:3 0.1977
5 TAUGATE_885:A 0.0788
*RES
2 inst_618:ZN TAUNET_885:1 0.3276
3 TAUNET_885:1 TAUNET_885:2 0.3833
4 TAUNET_885:2 TAUNET_885:3 0.3292
5 TAUNET_885:3 TAUGATE_885:A 0.0716
*END

*D_NET net_54 6.0496
*CONN
*I TAUGATE_456:Z O
*I inst_772:A1 I
*I inst_236:A1 I
*I inst_536:A I
*I inst_534:A I
*I inst_49:A1 I
*CAP
1 TAUGATE_456:Z 0.1922
2 net_54:1 0.1322
3 net_54:2 0.1905
4 net_54:3 0.4017
5 inst_536:A 0.4680
6 net_54:4 0.1868
7 net_54:5 0.4889
8 inst_236:A1 0.0703
9 net_54:6 0.3990
10 inst_772:A1 0.4035
11 net_54:7 0.4976
12 net_54:8 0.3591
13 net_54:9 0.2780
14 net_54:10 0.2022
15 inst_534:A 0.1593
16 net_54:11 0.0632
17 net_54:12 0.2503
18 net_54:13 0.4700
19 net_54:14 0.3789
20 net_54:15 0.3545
21 inst_49:A1 0.1033
*RES
2 TAUGATE_456:Z net_54:1 0.2976
3 net_54:1 net_54:2 0.2331
4 net_54:2 net_54:3 0.2927
5 net_54:3 inst_536:A 0.3943
6 net_54:2 net_54:4 0.3298
7 net_54:4 net_54:5 0.4131
8 net_54:5 inst_236:A1 0.3310
9 net_54:2 net_54:6 0.0219
10 net_54:6 inst_772:A1 0.0830
11 net_54:2 net_54:7 0.4382
12 net_54:7 net_54:8 0.3498
13 net_54:8 net_54:9 0.4055
14 net_54:9 net_54:10 0.4519
15 net_54:10 inst_534:A 0.4658
16 net_54:8 net_54:11 0.4316
17 net_54:11 net_54:12 0.1782
18 net_54:12 net_54:13 0.4734
19 net_54:13 net_54:14 0.0376
20 net_54:14 net_54:15 0.0972
21 net_54:15 inst_49:A1 0.3594
*END

*D_NET net_526 8.6565
*CONN
*I TAUGATE_195:Z O
*I inst_393:A1 I
*I inst_410:A1 I
*I inst_304:A1 I
*I inst_314:A1 I
*I inst_326:A2 I
*I inst_421:A1 I
*I inst_302:A1 I
*I inst_303:A1 I
*CAP
1 TAUGATE_195:Z 0.3248
2 net_526:1 0.1267
3 net_526:2 0.3840
4 net_526:3 0.2434
5 inst_393:A1 0.3726
6 net_526:4 0.1288
7 net_526:5 0.3022
8 net_526:6 0.1405
9 net_526:7 0.0668
10 net_526:8 0.3699
11 inst_410:A1 0.4131
12 net_526:9 0.2034
13 net_526:10 0.1592
14 inst_304:A1 0.3147
15 net_526:11 0.3580
16 net_526:12 0.3774
17 net_526:13 0.2731
18 net_526:14 0.1525
19 inst_314:A1 0.0518
20 net_526:15 0.4230
21 inst_326:A2 0.1494
22 net_526:16 0.4381
23 net_526:17 0.3484
24 inst_421:A1 0.0801
25 net_526:18 0.4104
26 inst_302:A1 0.0649
27 net_526:19 0.1076
28 net_526:20 0.4606
29 net_526:21 0.3388
30 net_526:22 0.4657
31 net_526:23 0.3595
32 inst_303:A1 0.2471
*RES
2 TAUGATE_195:Z net_526:1 0.2980
3 net_526:1 net_526:2 0.2454
4 net_526:2 net_526:3 0.4670
5 net_526:3 inst_393:A1 0.1921
6 net_526:1 net_526:4 0.4004
7 net_526:4 net_526:5 0.4814
8 net_526:5 net_526:6 0.1341
9 net_526:6 net_526:7 0.3915
10 net_526:7 net_526:8 0.0282
11 net_526:8 inst_410:A1 0.3089
12 net_526:5 net_526:9 0.2761
13 net_526:9 net_526:10 0.3643
14 net_526:10 inst_304:A1 0.2288
15 net_526:1 net_526:11 0.2548
16 net_526:11 net_526:12 0.2154
17 net_526:12 net_526:13 0.4921
18 net_526:13 net_526:14 0.1648
19 net_526:14 inst_314:A1 0.1855
20 net_526:7 net_526:15 0.3290
21 net_526:15 inst_326:A2 0.1620
22 net_526:10 net_526:16 0.1392
23 net_526:16 net_526:17 0.1891
24 net_526:17 inst_421:A1 0.0464
25 net_526:1 net_526:18 0.0510
26 net_526:18 inst_302:A1 0.1600
27 net_526:8 net_526:19 0.0832
28 net_526:19 net_526:20 0.0580
29 net_526:20 net_526:21 0.3736
30 net_526:21 net_526:22 0.0395
31 net_526:22 net_526:23 0.3644
32 net_526:23 inst_303:A1 0.0829
*END

*D_NET TAUNET_232 2.2654
*CONN
*I inst_255:ZN O
*I TAUGATE_232:A I
*CAP
1 inst_255:ZN 0.4694
2 TAUNET_232:1 0.3882
3 TAUNET_232:2 0.4950
4 TAUNET_232:3 0.0413
5 TAUNET_232:4 0.4651
6 TAUGATE_232:A 0.4065
*RES
2 inst_255:ZN TAUNET_232:1 0.3164
3 TAUNET_232:1 TAUNET_232:2 0.3513
4 TAUNET_232:2 TAUNET_232:3 0.1165
5 TAUNET_232:3 TAUNET_232:4 0.0986
6 TAUNET_232:4 TAUGATE_232:A 0.2243
*END

*D_NET net_429 3.1098
*CONN
*I TAUGATE_447:Z O
*I inst_696:A I
*I inst_409:A2 I
*I inst_364:A1 I
*CAP
1 TAUGATE_447:Z 0.4269
2 net_429:1 0.2195
3 net_429:2 0.1533
4 net_429:3 0.4091
5 inst_696:A 0.2613
6 net_429:4 0.1210
7 net_429:5 0.1733
8 net_429:6 0.1014
9 net_429:7 0.0283
10 net_429:8 0.2763
11 inst_409:A2 0.2945
12 net_429:9 0.3629
13 inst_364:A1 0.2821
*RES
2 TAUGATE_447:Z net_429:1 0.3587
3 net_429:1 net_429:2 0.1869
4 net_429:2 net_429:3 0.4974
5 net_429:3 inst_696:A 0.3047
6 net_429:1 net_429:4 0.3177
7 net_429:4 net_429:5 0.2101
8 net_429:5 net_429:6 0.3390
9 net_429:6 net_429:7 0.2046
10 net_429:7 net_429:8 0.3404
11 net_429:8 inst_409:A2 0.1317
12 net_429:6 net_429:9 0.3900
13 net_429:9 inst_364:A1 0.0557
*END

*D_NET net_129 1.5353
*CONN
*I TAUGATE_615:Z O
*I inst_402:A1 I
*CAP
1 TAUGATE_615:Z 0.2716
2 net_129:1 0.1079
3 net_129:2 0.3323
4 net_129:3 0.2907
5 net_129:4 0.0362
6 inst_402:A1 0.4966
*RES
2 TAUGATE_615:Z net_129:1 0.4101
3 net_129:1 net_129:2 0.2702
4 net_129:2 net_129:3 0.2135
5 net_129:3 net_129:4 0.0419
6 net_129:4 inst_402:A1 0.2773
*END

*D_NET net_694 2.1160
*CONN
*I TAUGATE_395:Z O
*I inst_232:A1 I
*CAP
1 TAUGATE_395:Z 0.0485
2 net_694:1 0.4262
3 net_694:2 0.2009
4 net_694:3 0.3114
5 net_694:4 0.3090
6 net_694:5 0.3972
7 inst_232:A1 0.4228
*RES
2 TAUGATE_395:Z net_694:1 0.2443
3 net_694:1 net_694:2 0.2458
4 net_694:2 net_694:3 0.3734
5 net_694:3 net_694:4 0.1567
6 net_694:4 net_694:5 0.1247
7 net_694:5 inst_232:A1 0.2439
*END

*D_NET net_373 1.4807
*CONN
*I TAUGATE_906:Z O
*I inst_393:A2 I
*CAP
1 TAUGATE_906:Z 0.4474
2 net_373:1 0.0472
3 net_373:2 0.4436
4 net_373:3 0.1981
5 net_373:4 0.3275
6 inst_393:A2 0.0169
*RES
2 TAUGATE_906:Z net_373:1 0.4026
3 net_373:1 net_373:2 0.4684
4 net_373:2 net_373:3 0.2490
5 net_373:3 net_373:4 0.0579
6 net_373:4 inst_393:A2 0.0423
*END

*D_NET net_98 1.8957
*CONN
*I TAUGATE_740:Z O
*I inst_301:A2 I
*CAP
1 TAUGATE_740:Z 0.4278
2 net_98:1 0.4796
3 net_98:2 0.3740
4 net_98:3 0.1554
5 net_98:4 0.0209
6 inst_301:A2 0.4380
*RES
2 TAUGATE_740:Z net_98:1 0.4130
3 net_98:1 net_98:2 0.4990
4 net_98:2 net_98:3 0.2134
5 net_98:3 net_98:4 0.1115
6 net_98:4 inst_301:A2 0.4947
*END

*D_NET net_648 2.2597
*CONN
*I TAUGATE_81:Z O
*I inst_765:D I
*CAP
1 TAUGATE_81:Z 0.2854
2 net_648:1 0.2438
3 net_648:2 0.2969
4 net_648:3 0.3091
5 net_648:4 0.5006
6 net_648:5 0.2264
7 inst_765:D 0.3973
*RES
2 TAUGATE_81:Z net_648:1 0.2044
3 net_648:1 net_648:2 0.1531
4 net_648:2 net_648:3 0.3886
5 net_648:3 net_648:4 0.2618
6 net_648:4 net_648:5 0.2468
7 net_648:5 inst_765:D 0.4002
*END

*D_NET TAUNET_801 0.7125
*CONN
*P v0 I
*I TAUGATE_801:A I
*CAP
1 v0 0.1857
2 TAUNET_801:1 0.0882
3 TAUGATE_801:A 0.4386
*RES
2 v0 TAUNET_801:1 0.2715
3 TAUNET_801:1 TAUGATE_801:A 0.0199
*END

*D_NET TAUNET_775 0.5520
*CONN
*I inst_171:ZN O
*I TAUGATE_775:A I
*CAP
1 inst_171:ZN 0.1459
2 TAUNET_775:1 0.1026
3 TAUNET_775:2 0.1939
4 TAUGATE_775:A 0.1095
*RES
2 inst_171:ZN TAUNET_775:1 0.0212
3 TAUNET_775:1 TAUNET_775:2 0.1417
4 TAUNET_775:2 TAUGATE_775:A 0.2190
*END

*D_NET net_739 1.5644
*CONN
*I TAUGATE_515:Z O
*I inst_143:A1 I
*CAP
1 TAUGATE_515:Z 0.1138
2 net_739:1 0.3663
3 net_739:2 0.2540
4 net_739:3 0.0526
5 net_739:4 0.2388
6 net_739:5 0.1787
7 inst_143:A1 0.3603
*RES
2 TAUGATE_515:Z net_739:1 0.0603
3 net_739:1 net_739:2 0.0863
4 net_739:2 net_739:3 0.3102
5 net_739:3 net_739:4 0.1239
6 net_739:4 net_739:5 0.2473
7 net_739:5 inst_143:A1 0.0055
*END

*D_NET net_151 1.2459
*CONN
*I TAUGATE_478:Z O
*I inst_21:A1 I
*CAP
1 TAUGATE_478:Z 0.2412
2 net_151:1 0.4441
3 net_151:2 0.4218
4 net_151:3 0.0848
5 net_151:4 0.0266
6 inst_21:A1 0.0274
*RES
2 TAUGATE_478:Z net_151:1 0.4218
3 net_151:1 net_151:2 0.2061
4 net_151:2 net_151:3 0.2110
5 net_151:3 net_151:4 0.4583
6 net_151:4 inst_21:A1 0.3985
*END

*D_NET net_53 2.4554
*CONN
*I TAUGATE_375:Z O
*I inst_242:A2 I
*I inst_49:A2 I
*CAP
1 TAUGATE_375:Z 0.0725
2 net_53:1 0.3124
3 net_53:2 0.3685
4 net_53:3 0.4317
5 net_53:4 0.1801
6 net_53:5 0.2826
7 inst_242:A2 0.3420
8 net_53:6 0.0327
9 net_53:7 0.0608
10 inst_49:A2 0.3721
*RES
2 TAUGATE_375:Z net_53:1 0.0965
3 net_53:1 net_53:2 0.2555
4 net_53:2 net_53:3 0.1304
5 net_53:3 net_53:4 0.3675
6 net_53:4 net_53:5 0.4634
7 net_53:5 inst_242:A2 0.2869
8 net_53:2 net_53:6 0.4648
9 net_53:6 net_53:7 0.2376
10 net_53:7 inst_49:A2 0.1146
*END

*D_NET net_356 1.9264
*CONN
*I TAUGATE_297:Z O
*I inst_389:A1 I
*I inst_499:B I
*I inst_4:A2 I
*CAP
1 TAUGATE_297:Z 0.1439
2 net_356:1 0.2502
3 inst_499:B 0.2506
4 net_356:2 0.2747
5 inst_389:A1 0.1704
6 net_356:3 0.3621
7 net_356:4 0.1254
8 inst_4:A2 0.3490
*RES
2 TAUGATE_297:Z net_356:1 0.4486
3 net_356:1 inst_499:B 0.0641
4 net_356:1 net_356:2 0.2303
5 net_356:2 inst_389:A1 0.0121
6 net_356:1 net_356:3 0.4751
7 net_356:3 net_356:4 0.3195
8 net_356:4 inst_4:A2 0.4748
*END

*D_NET net_452 1.3487
*CONN
*I TAUGATE_836:Z O
*I inst_406:A2 I
*CAP
1 TAUGATE_836:Z 0.2036
2 net_452:1 0.0185
3 net_452:2 0.3777
4 net_452:3 0.2437
5 net_452:4 0.3641
6 inst_406:A2 0.1411
*RES
2 TAUGATE_836:Z net_452:1 0.2452
3 net_452:1 net_452:2 0.2723
4 net_452:2 net_452:3 0.2079
5 net_452:3 net_452:4 0.2449
6 net_452:4 inst_406:A2 0.0406
*END

*D_NET net_545 3.5837
*CONN
*I TAUGATE_832:Z O
*I inst_169:A2 I
*I inst_42:A3 I
*I inst_62:A2 I
*I inst_581:A I
*I inst_591:A I
*I inst_590:A I
*CAP
1 TAUGATE_832:Z 0.0078
2 net_545:1 0.0264
3 inst_42:A3 0.0174
4 net_545:2 0.0209
5 net_545:3 0.1182
6 net_545:4 0.1067
7 net_545:5 0.4881
8 inst_169:A2 0.3672
9 net_545:6 0.2325
10 net_545:7 0.2733
11 net_545:8 0.1266
12 net_545:9 0.3814
13 inst_62:A2 0.1363
14 net_545:10 0.4527
15 net_545:11 0.1465
16 inst_581:A 0.1463
17 net_545:12 0.1546
18 inst_591:A 0.1861
19 net_545:13 0.0111
20 net_545:14 0.1222
21 inst_590:A 0.0613
*RES
2 TAUGATE_832:Z net_545:1 0.1906
3 net_545:1 inst_42:A3 0.1553
4 net_545:1 net_545:2 0.4629
5 net_545:2 net_545:3 0.1157
6 net_545:3 net_545:4 0.1901
7 net_545:4 net_545:5 0.2138
8 net_545:5 inst_169:A2 0.5008
9 net_545:3 net_545:6 0.3277
10 net_545:6 net_545:7 0.3144
11 net_545:7 net_545:8 0.4503
12 net_545:8 net_545:9 0.3676
13 net_545:9 inst_62:A2 0.1603
14 net_545:9 net_545:10 0.4621
15 net_545:10 net_545:11 0.4065
16 net_545:11 inst_581:A 0.0227
17 net_545:10 net_545:12 0.4367
18 net_545:12 inst_591:A 0.3452
19 net_545:1 net_545:13 0.1692
20 net_545:13 net_545:14 0.4407
21 net_545:14 inst_590:A 0.4978
*END

*D_NET net_284 4.2629
*CONN
*I TAUGATE_802:Z O
*I inst_36:A2 I
*I inst_498:B I
*I inst_610:A I
*CAP
1 TAUGATE_802:Z 0.2595
2 net_284:1 0.2874
3 net_284:2 0.3072
4 net_284:3 0.2768
5 inst_498:B 0.1679
6 net_284:4 0.4796
7 net_284:5 0.3806
8 net_284:6 0.4946
9 inst_36:A2 0.4608
10 net_284:7 0.0845
11 net_284:8 0.1888
12 net_284:9 0.1436
13 net_284:10 0.1762
14 net_284:11 0.4748
15 inst_610:A 0.0806
*RES
2 TAUGATE_802:Z net_284:1 0.2053
3 net_284:1 net_284:2 0.2140
4 net_284:2 net_284:3 0.3306
5 net_284:3 inst_498:B 0.1569
6 net_284:2 net_284:4 0.4692
7 net_284:4 net_284:5 0.4766
8 net_284:5 net_284:6 0.0589
9 net_284:6 inst_36:A2 0.0962
10 net_284:3 net_284:7 0.0407
11 net_284:7 net_284:8 0.2069
12 net_284:8 net_284:9 0.0491
13 net_284:9 net_284:10 0.4137
14 net_284:10 net_284:11 0.3046
15 net_284:11 inst_610:A 0.2987
*END

*D_NET net_560 1.6284
*CONN
*I TAUGATE_613:Z O
*I inst_126:A1 I
*CAP
1 TAUGATE_613:Z 0.1831
2 net_560:1 0.0191
3 net_560:2 0.3538
4 net_560:3 0.4300
5 net_560:4 0.3629
6 net_560:5 0.0787
7 inst_126:A1 0.2007
*RES
2 TAUGATE_613:Z net_560:1 0.2971
3 net_560:1 net_560:2 0.4025
4 net_560:2 net_560:3 0.5010
5 net_560:3 net_560:4 0.3538
6 net_560:4 net_560:5 0.4649
7 net_560:5 inst_126:A1 0.0482
*END

*D_NET TAUNET_504 1.9070
*CONN
*I inst_499:Z O
*I TAUGATE_504:A I
*CAP
1 inst_499:Z 0.2963
2 TAUNET_504:1 0.2002
3 TAUNET_504:2 0.2573
4 TAUNET_504:3 0.3761
5 TAUNET_504:4 0.0616
6 TAUNET_504:5 0.4298
7 TAUGATE_504:A 0.2857
*RES
2 inst_499:Z TAUNET_504:1 0.2634
3 TAUNET_504:1 TAUNET_504:2 0.0470
4 TAUNET_504:2 TAUNET_504:3 0.0745
5 TAUNET_504:3 TAUNET_504:4 0.1738
6 TAUNET_504:4 TAUNET_504:5 0.4336
7 TAUNET_504:5 TAUGATE_504:A 0.4556
*END

*D_NET TAUNET_792 1.0764
*CONN
*I inst_456:ZN O
*I TAUGATE_792:A I
*CAP
1 inst_456:ZN 0.0036
2 TAUNET_792:1 0.2737
3 TAUNET_792:2 0.3095
4 TAUGATE_792:A 0.4895
*RES
2 inst_456:ZN TAUNET_792:1 0.4033
3 TAUNET_792:1 TAUNET_792:2 0.2734
4 TAUNET_792:2 TAUGATE_792:A 0.3461
*END

*D_NET TAUNET_91 1.3424
*CONN
*I inst_21:ZN O
*I TAUGATE_91:A I
*CAP
1 inst_21:ZN 0.0418
2 TAUNET_91:1 0.3815
3 TAUNET_91:2 0.1458
4 TAUNET_91:3 0.4915
5 TAUNET_91:4 0.0683
6 TAUGATE_91:A 0.2135
*RES
2 inst_21:ZN TAUNET_91:1 0.4484
3 TAUNET_91:1 TAUNET_91:2 0.1379
4 TAUNET_91:2 TAUNET_91:3 0.1139
5 TAUNET_91:3 TAUNET_91:4 0.0489
6 TAUNET_91:4 TAUGATE_91:A 0.0861
*END

*D_NET net_439 1.2401
*CONN
*I TAUGATE_663:Z O
*I inst_400:A2 I
*CAP
1 TAUGATE_663:Z 0.4806
2 net_439:1 0.1114
3 net_439:2 0.0198
4 net_439:3 0.2366
5 net_439:4 0.1100
6 inst_400:A2 0.2818
*RES
2 TAUGATE_663:Z net_439:1 0.3290
3 net_439:1 net_439:2 0.1592
4 net_439:2 net_439:3 0.4236
5 net_439:3 net_439:4 0.3328
6 net_439:4 inst_400:A2 0.1906
*END

*D_NET TAUNET_625 1.5747
*CONN
*I inst_516:ZN O
*I TAUGATE_625:A I
*CAP
1 inst_516:ZN 0.4347
2 TAUNET_625:1 0.1394
3 TAUNET_625:2 0.0096
4 TAUNET_625:3 0.4963
5 TAUNET_625:4 0.2377
6 TAUGATE_625:A 0.2571
*RES
2 inst_516:ZN TAUNET_625:1 0.3610
3 TAUNET_625:1 TAUNET_625:2 0.0042
4 TAUNET_625:2 TAUNET_625:3 0.2690
5 TAUNET_625:3 TAUNET_625:4 0.3841
6 TAUNET_625:4 TAUGATE_625:A 0.3400
*END

*D_NET TAUNET_603 1.2277
*CONN
*I inst_393:ZN O
*I TAUGATE_603:A I
*CAP
1 inst_393:ZN 0.3112
2 TAUNET_603:1 0.4134
3 TAUNET_603:2 0.0741
4 TAUGATE_603:A 0.4290
*RES
2 inst_393:ZN TAUNET_603:1 0.4891
3 TAUNET_603:1 TAUNET_603:2 0.0621
4 TAUNET_603:2 TAUGATE_603:A 0.2122
*END

*D_NET TAUNET_208 0.7629
*CONN
*I inst_297:ZN O
*I TAUGATE_208:A I
*CAP
1 inst_297:ZN 0.1253
2 TAUNET_208:1 0.2343
3 TAUNET_208:2 0.1106
4 TAUNET_208:3 0.0283
5 TAUGATE_208:A 0.2644
*RES
2 inst_297:ZN TAUNET_208:1 0.3395
3 TAUNET_208:1 TAUNET_208:2 0.4160
4 TAUNET_208:2 TAUNET_208:3 0.1311
5 TAUNET_208:3 TAUGATE_208:A 0.1702
*END

*D_NET net_259 2.0986
*CONN
*I TAUGATE_135:Z O
*I inst_306:A2 I
*I inst_217:A2 I
*CAP
1 TAUGATE_135:Z 0.0383
2 net_259:1 0.2177
3 net_259:2 0.0520
4 net_259:3 0.1787
5 inst_306:A2 0.3277
6 net_259:4 0.0500
7 net_259:5 0.3450
8 net_259:6 0.2552
9 net_259:7 0.2397
10 inst_217:A2 0.3943
*RES
2 TAUGATE_135:Z net_259:1 0.2308
3 net_259:1 net_259:2 0.1825
4 net_259:2 net_259:3 0.4154
5 net_259:3 inst_306:A2 0.4205
6 net_259:1 net_259:4 0.0450
7 net_259:4 net_259:5 0.3586
8 net_259:5 net_259:6 0.1804
9 net_259:6 net_259:7 0.2132
10 net_259:7 inst_217:A2 0.3448
*END

*D_NET net_548 0.6797
*CONN
*I TAUGATE_411:Z O
*I inst_447:A1 I
*CAP
1 TAUGATE_411:Z 0.0169
2 net_548:1 0.3418
3 net_548:2 0.0277
4 net_548:3 0.2232
5 inst_447:A1 0.0700
*RES
2 TAUGATE_411:Z net_548:1 0.3825
3 net_548:1 net_548:2 0.4916
4 net_548:2 net_548:3 0.0258
5 net_548:3 inst_447:A1 0.0722
*END

*D_NET TAUNET_689 0.1761
*CONN
*I inst_653:ZN O
*I TAUGATE_689:A I
*CAP
1 inst_653:ZN 0.0274
2 TAUNET_689:1 0.0758
3 TAUGATE_689:A 0.0730
*RES
2 inst_653:ZN TAUNET_689:1 0.2996
3 TAUNET_689:1 TAUGATE_689:A 0.1500
*END

*D_NET TAUNET_784 1.1459
*CONN
*I inst_36:ZN O
*I TAUGATE_784:A I
*CAP
1 inst_36:ZN 0.0605
2 TAUNET_784:1 0.4347
3 TAUNET_784:2 0.2976
4 TAUGATE_784:A 0.3531
*RES
2 inst_36:ZN TAUNET_784:1 0.0316
3 TAUNET_784:1 TAUNET_784:2 0.1823
4 TAUNET_784:2 TAUGATE_784:A 0.0755
*END

*D_NET net_501 2.4382
*CONN
*I TAUGATE_574:Z O
*I inst_134:A3 I
*I inst_177:A2 I
*I inst_620:A I
*CAP
1 TAUGATE_574:Z 0.3515
2 net_501:1 0.4269
3 net_501:2 0.0493
4 net_501:3 0.0341
5 inst_177:A2 0.3020
6 net_501:4 0.3051
7 inst_134:A3 0.1197
8 net_501:5 0.3150
9 net_501:6 0.0137
10 net_501:7 0.2108
11 inst_620:A 0.3101
*RES
2 TAUGATE_574:Z net_501:1 0.3389
3 net_501:1 net_501:2 0.4000
4 net_501:2 net_501:3 0.0188
5 net_501:3 inst_177:A2 0.4709
6 net_501:2 net_501:4 0.2956
7 net_501:4 inst_134:A3 0.2210
8 net_501:1 net_501:5 0.0161
9 net_501:5 net_501:6 0.2047
10 net_501:6 net_501:7 0.3729
11 net_501:7 inst_620:A 0.0610
*END

*D_NET TAUNET_826 1.7628
*CONN
*I inst_349:ZN O
*I TAUGATE_826:A I
*CAP
1 inst_349:ZN 0.2910
2 TAUNET_826:1 0.3083
3 TAUNET_826:2 0.1250
4 TAUNET_826:3 0.3526
5 TAUNET_826:4 0.3715
6 TAUGATE_826:A 0.3144
*RES
2 inst_349:ZN TAUNET_826:1 0.3618
3 TAUNET_826:1 TAUNET_826:2 0.0820
4 TAUNET_826:2 TAUNET_826:3 0.2174
5 TAUNET_826:3 TAUNET_826:4 0.3638
6 TAUNET_826:4 TAUGATE_826:A 0.4097
*END

*D_NET net_187 2.1778
*CONN
*I TAUGATE_708:Z O
*I inst_297:A1 I
*I inst_278:A2 I
*CAP
1 TAUGATE_708:Z 0.4080
2 net_187:1 0.4981
3 net_187:2 0.3134
4 net_187:3 0.4059
5 net_187:4 0.1396
6 inst_297:A1 0.0910
7 net_187:5 0.0712
8 net_187:6 0.0044
9 net_187:7 0.1986
10 inst_278:A2 0.0476
*RES
2 TAUGATE_708:Z net_187:1 0.1278
3 net_187:1 net_187:2 0.3093
4 net_187:2 net_187:3 0.3342
5 net_187:3 net_187:4 0.2150
6 net_187:4 inst_297:A1 0.0109
7 net_187:2 net_187:5 0.0521
8 net_187:5 net_187:6 0.0546
9 net_187:6 net_187:7 0.0043
10 net_187:7 inst_278:A2 0.2737
*END

*D_NET TAUNET_672 1.2711
*CONN
*I inst_377:ZN O
*I TAUGATE_672:A I
*CAP
1 inst_377:ZN 0.2677
2 TAUNET_672:1 0.1466
3 TAUNET_672:2 0.2784
4 TAUNET_672:3 0.2008
5 TAUGATE_672:A 0.3776
*RES
2 inst_377:ZN TAUNET_672:1 0.2937
3 TAUNET_672:1 TAUNET_672:2 0.0093
4 TAUNET_672:2 TAUNET_672:3 0.2822
5 TAUNET_672:3 TAUGATE_672:A 0.4311
*END

*D_NET net_111 1.6512
*CONN
*I TAUGATE_372:Z O
*I inst_296:A2 I
*CAP
1 TAUGATE_372:Z 0.1138
2 net_111:1 0.3567
3 net_111:2 0.3242
4 net_111:3 0.2336
5 net_111:4 0.3863
6 inst_296:A2 0.2365
*RES
2 TAUGATE_372:Z net_111:1 0.1037
3 net_111:1 net_111:2 0.3572
4 net_111:2 net_111:3 0.2211
5 net_111:3 net_111:4 0.2185
6 net_111:4 inst_296:A2 0.2266
*END

*D_NET net_264 1.9002
*CONN
*I TAUGATE_861:Z O
*I inst_168:A3 I
*CAP
1 TAUGATE_861:Z 0.1297
2 net_264:1 0.2417
3 net_264:2 0.2444
4 net_264:3 0.4262
5 net_264:4 0.3737
6 net_264:5 0.3015
7 inst_168:A3 0.1830
*RES
2 TAUGATE_861:Z net_264:1 0.3035
3 net_264:1 net_264:2 0.4053
4 net_264:2 net_264:3 0.0863
5 net_264:3 net_264:4 0.2362
6 net_264:4 net_264:5 0.1365
7 net_264:5 inst_168:A3 0.0277
*END

*D_NET TAUNET_192 0.8486
*CONN
*I inst_593:ZN O
*I TAUGATE_192:A I
*CAP
1 inst_593:ZN 0.2912
2 TAUNET_192:1 0.3711
3 TAUNET_192:2 0.0512
4 TAUGATE_192:A 0.1351
*RES
2 inst_593:ZN TAUNET_192:1 0.0984
3 TAUNET_192:1 TAUNET_192:2 0.0368
4 TAUNET_192:2 TAUGATE_192:A 0.4376
*END

*D_NET net_225 2.5993
*CONN
*I TAUGATE_547:Z O
*I inst_214:A1 I
*I inst_31:A2 I
*CAP
1 TAUGATE_547:Z 0.1283
2 net_225:1 0.3234
3 net_225:2 0.4610
4 inst_214:A1 0.4832
5 net_225:3 0.4556
6 net_225:4 0.1835
7 net_225:5 0.0020
8 net_225:6 0.2614
9 inst_31:A2 0.3010
*RES
2 TAUGATE_547:Z net_225:1 0.2776
3 net_225:1 net_225:2 0.3781
4 net_225:2 inst_214:A1 0.3766
5 net_225:1 net_225:3 0.2164
6 net_225:3 net_225:4 0.4372
7 net_225:4 net_225:5 0.1158
8 net_225:5 net_225:6 0.1153
9 net_225:6 inst_31:A2 0.3810
*END

*D_NET TAUNET_141 1.4651
*CONN
*I inst_321:ZN O
*I TAUGATE_141:A I
*CAP
1 inst_321:ZN 0.1662
2 TAUNET_141:1 0.2541
3 TAUNET_141:2 0.2497
4 TAUNET_141:3 0.4625
5 TAUNET_141:4 0.2343
6 TAUGATE_141:A 0.0981
*RES
2 inst_321:ZN TAUNET_141:1 0.3461
3 TAUNET_141:1 TAUNET_141:2 0.2382
4 TAUNET_141:2 TAUNET_141:3 0.4109
5 TAUNET_141:3 TAUNET_141:4 0.0945
6 TAUNET_141:4 TAUGATE_141:A 0.2326
*END

*D_NET TAUNET_874 0.7650
*CONN
*I inst_337:ZN O
*I TAUGATE_874:A I
*CAP
1 inst_337:ZN 0.2674
2 TAUNET_874:1 0.0414
3 TAUNET_874:2 0.2455
4 TAUNET_874:3 0.1970
5 TAUGATE_874:A 0.0138
*RES
2 inst_337:ZN TAUNET_874:1 0.4527
3 TAUNET_874:1 TAUNET_874:2 0.3131
4 TAUNET_874:2 TAUNET_874:3 0.4392
5 TAUNET_874:3 TAUGATE_874:A 0.4048
*END

*D_NET net_636 1.7566
*CONN
*I TAUGATE_449:Z O
*I inst_32:A1 I
*CAP
1 TAUGATE_449:Z 0.3283
2 net_636:1 0.4199
3 net_636:2 0.3736
4 net_636:3 0.3306
5 inst_32:A1 0.3042
*RES
2 TAUGATE_449:Z net_636:1 0.1317
3 net_636:1 net_636:2 0.1481
4 net_636:2 net_636:3 0.2485
5 net_636:3 inst_32:A1 0.2201
*END

*D_NET net_252 0.7087
*CONN
*I TAUGATE_896:Z O
*I inst_341:A2 I
*CAP
1 TAUGATE_896:Z 0.3013
2 net_252:1 0.0262
3 inst_341:A2 0.3812
*RES
2 TAUGATE_896:Z net_252:1 0.0656
3 net_252:1 inst_341:A2 0.1550
*END

*D_NET net_124 3.0829
*CONN
*I TAUGATE_472:Z O
*I inst_208:A1 I
*I inst_518:A I
*CAP
1 TAUGATE_472:Z 0.1418
2 net_124:1 0.3805
3 net_124:2 0.2523
4 net_124:3 0.0497
5 inst_208:A1 0.4938
6 net_124:4 0.4364
7 net_124:5 0.2454
8 net_124:6 0.4527
9 net_124:7 0.2663
10 inst_518:A 0.3641
*RES
2 TAUGATE_472:Z net_124:1 0.3913
3 net_124:1 net_124:2 0.2131
4 net_124:2 net_124:3 0.3201
5 net_124:3 inst_208:A1 0.0320
6 net_124:2 net_124:4 0.1740
7 net_124:4 net_124:5 0.2701
8 net_124:5 net_124:6 0.3351
9 net_124:6 net_124:7 0.4105
10 net_124:7 inst_518:A 0.3004
*END

*D_NET net_263 4.2301
*CONN
*I TAUGATE_339:Z O
*I inst_400:A1 I
*I inst_747:A I
*I inst_675:A I
*CAP
1 TAUGATE_339:Z 0.1341
2 net_263:1 0.1706
3 inst_675:A 0.3812
4 net_263:2 0.3573
5 net_263:3 0.4559
6 net_263:4 0.3575
7 net_263:5 0.1715
8 net_263:6 0.3050
9 inst_747:A 0.3594
10 net_263:7 0.3318
11 net_263:8 0.3308
12 net_263:9 0.4080
13 inst_400:A1 0.4669
*RES
2 TAUGATE_339:Z net_263:1 0.0751
3 net_263:1 inst_675:A 0.1227
4 net_263:1 net_263:2 0.4902
5 net_263:2 net_263:3 0.4716
6 net_263:3 net_263:4 0.2112
7 net_263:4 net_263:5 0.1762
8 net_263:5 net_263:6 0.1166
9 net_263:6 inst_747:A 0.1660
10 net_263:2 net_263:7 0.1932
11 net_263:7 net_263:8 0.0675
12 net_263:8 net_263:9 0.0053
13 net_263:9 inst_400:A1 0.1459
*END

*D_NET net_343 2.0694
*CONN
*I TAUGATE_886:Z O
*I inst_381:A2 I
*CAP
1 TAUGATE_886:Z 0.4598
2 net_343:1 0.2033
3 net_343:2 0.3263
4 net_343:3 0.4574
5 net_343:4 0.4683
6 inst_381:A2 0.1543
*RES
2 TAUGATE_886:Z net_343:1 0.4873
3 net_343:1 net_343:2 0.1669
4 net_343:2 net_343:3 0.4800
5 net_343:3 net_343:4 0.4518
6 net_343:4 inst_381:A2 0.0570
*END

*D_NET TAUNET_427 1.8484
*CONN
*I inst_340:ZN O
*I TAUGATE_427:A I
*CAP
1 inst_340:ZN 0.0572
2 TAUNET_427:1 0.1013
3 TAUNET_427:2 0.2457
4 TAUNET_427:3 0.4210
5 TAUNET_427:4 0.2594
6 TAUNET_427:5 0.3565
7 TAUGATE_427:A 0.4074
*RES
2 inst_340:ZN TAUNET_427:1 0.4309
3 TAUNET_427:1 TAUNET_427:2 0.4474
4 TAUNET_427:2 TAUNET_427:3 0.2931
5 TAUNET_427:3 TAUNET_427:4 0.2848
6 TAUNET_427:4 TAUNET_427:5 0.2246
7 TAUNET_427:5 TAUGATE_427:A 0.3320
*END

*D_NET net_160 2.7856
*CONN
*I TAUGATE_231:Z O
*I inst_292:A1 I
*I inst_645:A I
*CAP
1 TAUGATE_231:Z 0.3663
2 net_160:1 0.1368
3 net_160:2 0.4493
4 inst_645:A 0.4663
5 net_160:3 0.4844
6 net_160:4 0.0401
7 net_160:5 0.2861
8 net_160:6 0.1883
9 net_160:7 0.3075
10 inst_292:A1 0.0604
*RES
2 TAUGATE_231:Z net_160:1 0.2866
3 net_160:1 net_160:2 0.1873
4 net_160:2 inst_645:A 0.1599
5 net_160:2 net_160:3 0.3908
6 net_160:3 net_160:4 0.2921
7 net_160:4 net_160:5 0.4162
8 net_160:5 net_160:6 0.1285
9 net_160:6 net_160:7 0.0491
10 net_160:7 inst_292:A1 0.3511
*END

*D_NET TAUNET_201 0.6920
*CONN
*I inst_167:ZN O
*I TAUGATE_201:A I
*CAP
1 inst_167:ZN 0.3010
2 TAUNET_201:1 0.0492
3 TAUNET_201:2 0.2707
4 TAUGATE_201:A 0.0711
*RES
2 inst_167:ZN TAUNET_201:1 0.2365
3 TAUNET_201:1 TAUNET_201:2 0.0021
4 TAUNET_201:2 TAUGATE_201:A 0.2080
*END

*D_NET net_322 5.4291
*CONN
*I TAUGATE_125:Z O
*I inst_385:A2 I
*I inst_324:A1 I
*I inst_254:A2 I
*I inst_305:A2 I
*CAP
1 TAUGATE_125:Z 0.4886
2 net_322:1 0.4404
3 net_322:2 0.3187
4 net_322:3 0.4272
5 net_322:4 0.0224
6 inst_254:A2 0.4026
7 net_322:5 0.2614
8 net_322:6 0.1530
9 inst_324:A1 0.2582
10 net_322:7 0.2666
11 net_322:8 0.4255
12 net_322:9 0.4671
13 net_322:10 0.2972
14 inst_385:A2 0.3936
15 net_322:11 0.3795
16 net_322:12 0.2362
17 inst_305:A2 0.1908
*RES
2 TAUGATE_125:Z net_322:1 0.2784
3 net_322:1 net_322:2 0.1803
4 net_322:2 net_322:3 0.0882
5 net_322:3 net_322:4 0.2924
6 net_322:4 inst_254:A2 0.4780
7 net_322:4 net_322:5 0.4484
8 net_322:5 net_322:6 0.0762
9 net_322:6 inst_324:A1 0.1986
10 net_322:6 net_322:7 0.4880
11 net_322:7 net_322:8 0.4169
12 net_322:8 net_322:9 0.3167
13 net_322:9 net_322:10 0.3376
14 net_322:10 inst_385:A2 0.1073
15 net_322:7 net_322:11 0.1996
16 net_322:11 net_322:12 0.3123
17 net_322:12 inst_305:A2 0.1251
*END

*D_NET net_511 0.7367
*CONN
*I TAUGATE_258:Z O
*I inst_428:A1 I
*CAP
1 TAUGATE_258:Z 0.3126
2 net_511:1 0.0541
3 inst_428:A1 0.3700
*RES
2 TAUGATE_258:Z net_511:1 0.3260
3 net_511:1 inst_428:A1 0.3466
*END

*D_NET TAUNET_749 0.9920
*CONN
*I inst_411:ZN O
*I TAUGATE_749:A I
*CAP
1 inst_411:ZN 0.4038
2 TAUNET_749:1 0.0063
3 TAUNET_749:2 0.4904
4 TAUGATE_749:A 0.0915
*RES
2 inst_411:ZN TAUNET_749:1 0.4619
3 TAUNET_749:1 TAUNET_749:2 0.1065
4 TAUNET_749:2 TAUGATE_749:A 0.1990
*END

*D_NET TAUNET_398 0.5577
*CONN
*I inst_488:ZN O
*I TAUGATE_398:A I
*CAP
1 inst_488:ZN 0.0690
2 TAUNET_398:1 0.2934
3 TAUNET_398:2 0.0661
4 TAUNET_398:3 0.0281
5 TAUGATE_398:A 0.1011
*RES
2 inst_488:ZN TAUNET_398:1 0.2539
3 TAUNET_398:1 TAUNET_398:2 0.0765
4 TAUNET_398:2 TAUNET_398:3 0.1980
5 TAUNET_398:3 TAUGATE_398:A 0.3226
*END

*D_NET net_420 2.4686
*CONN
*I TAUGATE_542:Z O
*I inst_411:A2 I
*CAP
1 TAUGATE_542:Z 0.2766
2 net_420:1 0.4267
3 net_420:2 0.4596
4 net_420:3 0.3295
5 net_420:4 0.4724
6 net_420:5 0.4631
7 inst_411:A2 0.0407
*RES
2 TAUGATE_542:Z net_420:1 0.4130
3 net_420:1 net_420:2 0.3462
4 net_420:2 net_420:3 0.0714
5 net_420:3 net_420:4 0.2110
6 net_420:4 net_420:5 0.2588
7 net_420:5 inst_411:A2 0.0339
*END

*D_NET TAUNET_546 0.9948
*CONN
*I inst_522:ZN O
*I TAUGATE_546:A I
*CAP
1 inst_522:ZN 0.4874
2 TAUNET_546:1 0.2489
3 TAUGATE_546:A 0.2584
*RES
2 inst_522:ZN TAUNET_546:1 0.0346
3 TAUNET_546:1 TAUGATE_546:A 0.4333
*END

*D_NET net_665 1.2318
*CONN
*I TAUGATE_605:Z O
*I inst_215:A1 I
*CAP
1 TAUGATE_605:Z 0.3416
2 net_665:1 0.1540
3 net_665:2 0.0325
4 net_665:3 0.0924
5 net_665:4 0.1850
6 net_665:5 0.1516
7 inst_215:A1 0.2746
*RES
2 TAUGATE_605:Z net_665:1 0.4228
3 net_665:1 net_665:2 0.1417
4 net_665:2 net_665:3 0.3754
5 net_665:3 net_665:4 0.2016
6 net_665:4 net_665:5 0.0068
7 net_665:5 inst_215:A1 0.2001
*END

*D_NET TAUNET_386 1.0932
*CONN
*I inst_190:ZN O
*I TAUGATE_386:A I
*CAP
1 inst_190:ZN 0.4926
2 TAUNET_386:1 0.3810
3 TAUGATE_386:A 0.2195
*RES
2 inst_190:ZN TAUNET_386:1 0.2042
3 TAUNET_386:1 TAUGATE_386:A 0.2030
*END

*D_NET TAUNET_653 1.1297
*CONN
*I inst_222:ZN O
*I TAUGATE_653:A I
*CAP
1 inst_222:ZN 0.4413
2 TAUNET_653:1 0.4042
3 TAUNET_653:2 0.0451
4 TAUGATE_653:A 0.2391
*RES
2 inst_222:ZN TAUNET_653:1 0.0321
3 TAUNET_653:1 TAUNET_653:2 0.4146
4 TAUNET_653:2 TAUGATE_653:A 0.0857
*END

*D_NET net_447 1.3928
*CONN
*I TAUGATE_153:Z O
*I inst_404:A2 I
*CAP
1 TAUGATE_153:Z 0.2245
2 net_447:1 0.0551
3 net_447:2 0.1877
4 net_447:3 0.0973
5 net_447:4 0.4235
6 net_447:5 0.1903
7 inst_404:A2 0.2143
*RES
2 TAUGATE_153:Z net_447:1 0.0701
3 net_447:1 net_447:2 0.2421
4 net_447:2 net_447:3 0.4634
5 net_447:3 net_447:4 0.2497
6 net_447:4 net_447:5 0.2766
7 net_447:5 inst_404:A2 0.3086
*END

*D_NET TAUNET_862 1.1823
*CONN
*I inst_697:ZN O
*I TAUGATE_862:A I
*CAP
1 inst_697:ZN 0.4838
2 TAUNET_862:1 0.3539
3 TAUGATE_862:A 0.3446
*RES
2 inst_697:ZN TAUNET_862:1 0.0192
3 TAUNET_862:1 TAUGATE_862:A 0.1341
*END

*D_NET net_410 1.7145
*CONN
*I TAUGATE_863:Z O
*I inst_146:A2 I
*CAP
1 TAUGATE_863:Z 0.3681
2 net_410:1 0.1561
3 net_410:2 0.1347
4 net_410:3 0.0224
5 net_410:4 0.3933
6 net_410:5 0.2244
7 inst_146:A2 0.4154
*RES
2 TAUGATE_863:Z net_410:1 0.1374
3 net_410:1 net_410:2 0.1713
4 net_410:2 net_410:3 0.2153
5 net_410:3 net_410:4 0.3119
6 net_410:4 net_410:5 0.4918
7 net_410:5 inst_146:A2 0.3583
*END

*D_NET net_508 1.2856
*CONN
*I TAUGATE_476:Z O
*I inst_474:A1 I
*CAP
1 TAUGATE_476:Z 0.0071
2 net_508:1 0.4834
3 net_508:2 0.4589
4 net_508:3 0.0098
5 inst_474:A1 0.3264
*RES
2 TAUGATE_476:Z net_508:1 0.2846
3 net_508:1 net_508:2 0.4721
4 net_508:2 net_508:3 0.1185
5 net_508:3 inst_474:A1 0.4585
*END

*D_NET TAUNET_362 1.8587
*CONN
*I inst_771:ZN O
*I TAUGATE_362:A I
*CAP
1 inst_771:ZN 0.0365
2 TAUNET_362:1 0.4335
3 TAUNET_362:2 0.3158
4 TAUNET_362:3 0.2513
5 TAUNET_362:4 0.4798
6 TAUNET_362:5 0.1640
7 TAUGATE_362:A 0.1778
*RES
2 inst_771:ZN TAUNET_362:1 0.3155
3 TAUNET_362:1 TAUNET_362:2 0.4909
4 TAUNET_362:2 TAUNET_362:3 0.2285
5 TAUNET_362:3 TAUNET_362:4 0.2293
6 TAUNET_362:4 TAUNET_362:5 0.4514
7 TAUNET_362:5 TAUGATE_362:A 0.1489
*END

*D_NET net_390 4.6539
*CONN
*I TAUGATE_229:Z O
*I inst_689:A I
*I inst_13:A1 I
*I inst_94:A2 I
*CAP
1 TAUGATE_229:Z 0.1815
2 net_390:1 0.3238
3 net_390:2 0.1536
4 net_390:3 0.2744
5 inst_94:A2 0.3973
6 net_390:4 0.4392
7 net_390:5 0.4660
8 net_390:6 0.3296
9 net_390:7 0.2711
10 net_390:8 0.1177
11 inst_13:A1 0.1130
12 net_390:9 0.2000
13 net_390:10 0.4330
14 net_390:11 0.3792
15 net_390:12 0.3945
16 net_390:13 0.1168
17 inst_689:A 0.0632