*SPEF "IEEE 1481-1998"
*DESIGN "changes"
*DATE "Tue Dec 02 19:59:54 2014"
*VENDOR "TAU 2015 Contest"
*PROGRAM "Benchmark Parasitic Generator"
*VERSION "0.0"
*DESIGN_FLOW "NETLIST_TYPE_VERILOG"
*DIVIDER /
*DELIMITER :
*BUS_DELIMITER [ ]
*T_UNIT 1 PS
*C_UNIT 1 FF
*R_UNIT 1 KOHM
*L_UNIT 1 UH

*D_NET net_283 1.7439
*CONN
*I TAUGATE_8:Z O
*I inst_39:A1 I
*CAP
1 TAUGATE_8:Z 0.2611
2 net_283:1 0.4098
3 net_283:2 0.5009
4 net_283:3 0.2843
5 inst_39:A1 0.2878
*RES
2 TAUGATE_8:Z net_283:1 0.1659
3 net_283:1 net_283:2 0.2742
4 net_283:2 net_283:3 0.3494
5 net_283:3 inst_39:A1 0.1485
*END

*D_NET net_492 1.3760
*CONN
*I TAUGATE_7:Z O
*I inst_414:A1 I
*CAP
1 TAUGATE_7:Z 0.2110
2 net_492:1 0.3070
3 net_492:2 0.3583
4 net_492:3 0.1395
5 net_492:4 0.0646
6 net_492:5 0.0794
7 inst_414:A1 0.2161
*RES
2 TAUGATE_7:Z net_492:1 0.1614
3 net_492:1 net_492:2 0.3312
4 net_492:2 net_492:3 0.3755
5 net_492:3 net_492:4 0.4644
6 net_492:4 net_492:5 0.4559
7 net_492:5 inst_414:A1 0.4050
*END

*D_NET net_453 4.1543
*CONN
*I TAUGATE_6:Z O
*I inst_595:A I
*I inst_26:A3 I
*I inst_467:A1 I
*CAP
1 TAUGATE_6:Z 0.1670
2 net_453:1 0.2440
3 net_453:2 0.0332
4 inst_595:A 0.0406
5 net_453:3 0.3706
6 net_453:4 0.0740
7 net_453:5 0.4871
8 inst_26:A3 0.4951
9 net_453:6 0.3356
10 net_453:7 0.3995
11 net_453:8 0.3845
12 net_453:9 0.4708
13 net_453:10 0.3056
14 inst_467:A1 0.3464
*RES
2 TAUGATE_6:Z net_453:1 0.2732
3 net_453:1 net_453:2 0.0073
4 net_453:2 inst_595:A 0.1308
5 net_453:1 net_453:3 0.4125
6 net_453:3 net_453:4 0.0565
7 net_453:4 net_453:5 0.1285
8 net_453:5 inst_26:A3 0.0292
9 net_453:3 net_453:6 0.0305
10 net_453:6 net_453:7 0.2383
11 net_453:7 net_453:8 0.4020
12 net_453:8 net_453:9 0.2529
13 net_453:9 net_453:10 0.2665
14 net_453:10 inst_467:A1 0.4354
*END

*D_NET TAUNET_9 1.2788
*CONN
*I inst_194:ZN O
*I TAUGATE_9:A I
*CAP
1 inst_194:ZN 0.0788
2 TAUNET_9:1 0.3833
3 TAUNET_9:2 0.3292
4 TAUNET_9:3 0.0716
5 TAUNET_9:4 0.2236
6 TAUGATE_9:A 0.1922
*RES
2 inst_194:ZN TAUNET_9:1 0.2805
3 TAUNET_9:1 TAUNET_9:2 0.1322
4 TAUNET_9:2 TAUNET_9:3 0.1905
5 TAUNET_9:3 TAUNET_9:4 0.4017
6 TAUNET_9:4 TAUGATE_9:A 0.4680
*END

*D_NET TAUNET_5 1.2308
*CONN
*I inst_383:ZN O
*I TAUGATE_5:A I
*CAP
1 inst_383:ZN 0.2331
2 TAUNET_5:1 0.3943
3 TAUNET_5:2 0.2211
4 TAUNET_5:3 0.1955
5 TAUGATE_5:A 0.1868
*RES
2 inst_383:ZN TAUNET_5:1 0.4889
3 TAUNET_5:1 TAUNET_5:2 0.0703
4 TAUNET_5:2 TAUNET_5:3 0.3298
5 TAUNET_5:3 TAUGATE_5:A 0.4131
*END

*D_NET TAUNET_8 1.4221
*CONN
*I inst_129:ZN O
*I TAUGATE_8:A I
*CAP
1 inst_129:ZN 0.2621
2 TAUNET_8:1 0.1808
3 TAUNET_8:2 0.0717
4 TAUNET_8:3 0.3990
5 TAUNET_8:4 0.4035
6 TAUNET_8:5 0.0219
7 TAUGATE_8:A 0.0830
*RES
2 inst_129:ZN TAUNET_8:1 0.4539
3 TAUNET_8:1 TAUNET_8:2 0.1250
4 TAUNET_8:2 TAUNET_8:3 0.3196
5 TAUNET_8:3 TAUNET_8:4 0.4976
6 TAUNET_8:4 TAUNET_8:5 0.3591
7 TAUNET_8:5 TAUGATE_8:A 0.2780
*END

*D_NET net_471 2.6031
*CONN
*I TAUGATE_5:Z O
*I inst_426:A2 I
*CAP
1 TAUGATE_5:Z 0.1593
2 net_471:1 0.3498
3 net_471:2 0.4055
4 net_471:3 0.4519
5 net_471:4 0.4658
6 net_471:5 0.3690
7 inst_426:A2 0.4019
*RES
2 TAUGATE_5:Z net_471:1 0.0632
3 net_471:1 net_471:2 0.2503
4 net_471:2 net_471:3 0.4700
5 net_471:3 net_471:4 0.3789
6 net_471:4 net_471:5 0.3545
7 net_471:5 inst_426:A2 0.1033
*END

*D_NET v13_D_11 1.3094
*CONN
*I TAUGATE_9:Z O
*P v13_D_11 O
*CAP
1 TAUGATE_9:Z 0.1782
2 v13_D_11:1 0.0376
3 v13_D_11:2 0.0972
4 v13_D_11:3 0.3594
5 v13_D_11:4 0.0525
6 v13_D_11:5 0.3248
7 v13_D_11 0.2597
*RES
2 TAUGATE_9:Z v13_D_11:1 0.1267
3 v13_D_11:1 v13_D_11:2 0.3840
4 v13_D_11:2 v13_D_11:3 0.2434
5 v13_D_11:3 v13_D_11:4 0.3726
6 v13_D_11:4 v13_D_11:5 0.2980
7 v13_D_11:5 v13_D_11 0.2454
*END

*D_NET TAUNET_6 1.0674
*CONN
*I inst_581:ZN O
*I TAUGATE_6:A I
*CAP
1 inst_581:ZN 0.1921
2 TAUNET_6:1 0.4443
3 TAUNET_6:2 0.1288
4 TAUGATE_6:A 0.3022
*RES
2 inst_581:ZN TAUNET_6:1 0.1405
3 TAUNET_6:1 TAUNET_6:2 0.0668
4 TAUNET_6:2 TAUGATE_6:A 0.3699
*END

*D_NET TAUNET_7 1.5989
*CONN
*I inst_711:ZN O
*I TAUGATE_7:A I
*CAP
1 inst_711:ZN 0.4004
2 TAUNET_7:1 0.1341
3 TAUNET_7:2 0.3915
4 TAUNET_7:3 0.0282
5 TAUNET_7:4 0.3089
6 TAUNET_7:5 0.0253
7 TAUGATE_7:A 0.3105
*RES
2 inst_711:ZN TAUNET_7:1 0.1881
3 TAUNET_7:1 TAUNET_7:2 0.2034
4 TAUNET_7:2 TAUNET_7:3 0.1592
5 TAUNET_7:3 TAUNET_7:4 0.3147
6 TAUNET_7:4 TAUNET_7:5 0.2761
7 TAUNET_7:5 TAUGATE_7:A 0.3643
*END

