*SPEF "IEEE 1481-1998"
*DESIGN "s1494"
*DATE "Tue Nov 25 16:55:02 2014"
*VENDOR "TAU 2015 Contest"
*PROGRAM "Benchmark Parasitic Generator"
*VERSION "0.0"
*DESIGN_FLOW "NETLIST_TYPE_VERILOG"
*DIVIDER /
*DELIMITER :
*BUS_DELIMITER [ ]
*T_UNIT 1 PS
*C_UNIT 1 FF
*R_UNIT 1 KOHM
*L_UNIT 1 UH

*D_NET net_568 0.1435
*CONN
*I inst_432:ZN O
*I inst_500:B I
*CAP
1 inst_432:ZN 0.0166
2 inst_500:B 0.0166
3 net_568:1 0.0152
4 net_568:2 0.0399
5 net_568:3 0.0399
6 net_568:4 0.0152
*RES
2 inst_432:ZN net_568:4 0.0050
3 net_568:1 inst_500:B 0.0050
4 net_568:2 net_568:1 0.0050
5 net_568:3 net_568:2 0.0034
6 net_568:4 net_568:3 0.0050
*END

*D_NET net_47 0.1046
*CONN
*I inst_240:ZN O
*I inst_488:A2 I
*CAP
1 inst_240:ZN 0.0223
2 inst_488:A2 0.0166
3 net_47:1 0.0176
4 net_47:2 0.0176
5 net_47:3 0.0306
*RES
2 inst_240:ZN net_47:3 0.0031
3 net_47:1 inst_488:A2 0.0050
4 net_47:1 net_47:2 0.0010
5 net_47:3 net_47:2 0.0050
*END

*D_NET net_416 0.4306
*CONN
*I inst_700:ZN O
*I inst_135:A1 I
*CAP
1 inst_700:ZN 0.0166
2 inst_135:A1 0.0166
3 net_416:1 0.0272
4 net_416:2 0.0272
5 net_416:3 0.0332
6 net_416:4 0.0332
7 net_416:5 0.0808
8 net_416:6 0.0831
9 net_416:7 0.0576
10 net_416:8 0.0553
*RES
2 inst_135:A1 net_416:8 0.0050
3 net_416:1 inst_700:ZN 0.0050
4 net_416:2 net_416:1 0.0015
5 net_416:3 net_416:2 0.0050
6 net_416:4 net_416:3 0.0014
7 net_416:5 net_416:4 0.0050
8 net_416:6 net_416:5 0.0095
9 net_416:7 net_416:6 0.0010
10 net_416:8 net_416:7 0.0070
*END

*D_NET net_215 0.6281
*CONN
*I inst_648:ZN O
*I inst_664:A I
*I inst_318:A2 I
*CAP
1 inst_648:ZN 0.0099
2 inst_664:A 0.0166
3 inst_318:A2 0.0152
4 net_215:1 0.0235
5 net_215:2 0.0201
6 net_215:3 0.0201
7 net_215:4 0.0142
8 net_215:5 0.1276
9 net_215:6 0.1040
10 net_215:7 0.1040
11 net_215:8 0.0182
12 net_215:9 0.0169
13 net_215:10 0.0169
14 net_215:11 0.1210
*RES
2 inst_648:ZN net_215:8 0.0010
3 net_215:1 inst_318:A2 0.0021
4 net_215:2 net_215:1 0.0050
5 net_215:2 net_215:3 0.0015
6 net_215:4 net_215:3 0.0050
7 net_215:5 net_215:4 0.0010
8 net_215:5 net_215:6 0.0050
9 net_215:6 net_215:7 0.0115
10 net_215:7 inst_664:A 0.0050
11 net_215:9 net_215:8 0.0050
12 net_215:10 net_215:9 0.0010
13 net_215:11 net_215:5 0.0143
14 net_215:11 net_215:10 0.0050
*END

*D_NET net_54 3.2155
*CONN
*I inst_527:ZN O
*I inst_534:A I
*I inst_536:A I
*I inst_236:A1 I
*I inst_49:A1 I
*I inst_772:A1 I
*CAP
1 inst_527:ZN 0.0076
2 inst_534:A 0.0166
3 inst_536:A 0.0166
4 inst_236:A1 0.0166
5 inst_49:A1 0.0237
6 inst_772:A1 0.0166
7 net_54:1 0.0152
8 net_54:2 0.0264
9 net_54:3 0.0264
10 net_54:4 0.1320
11 net_54:5 0.1320
12 net_54:6 0.1884
13 net_54:7 0.1884
14 net_54:8 0.0214
15 net_54:9 0.0214
16 net_54:10 0.0158
17 net_54:11 0.0158
18 net_54:12 0.0152
19 net_54:13 0.1212
20 net_54:14 0.0722
21 net_54:15 0.0306
22 net_54:16 0.0306
23 net_54:17 0.0274
24 net_54:18 0.0274
25 net_54:19 0.0306
26 net_54:20 0.0306
27 net_54:21 0.0265
28 net_54:22 0.0265
29 net_54:23 0.1045
30 net_54:24 0.1045
31 net_54:25 0.0275
32 net_54:26 0.0275
33 net_54:27 0.0895
34 net_54:28 0.0895
35 net_54:29 0.0604
36 net_54:30 0.0152
37 net_54:31 0.0199
38 net_54:32 0.0582
39 net_54:33 0.0459
40 net_54:34 0.5017
41 net_54:35 0.5017
42 net_54:36 0.0737
43 net_54:37 0.0737
44 net_54:38 0.0237
45 net_54:39 0.0237
46 net_54:40 0.0237
47 net_54:41 0.0159
48 net_54:42 0.0152
*RES
2 inst_527:ZN net_54:41 0.0010
3 inst_49:A1 net_54:21 0.0050
4 net_54:1 inst_534:A 0.0050
5 net_54:2 net_54:1 0.0050
6 net_54:3 net_54:2 0.0010
7 net_54:4 net_54:3 0.0050
8 net_54:4 net_54:5 0.0034
9 net_54:5 net_54:6 0.0030
10 net_54:7 net_54:6 0.0067
11 net_54:7 net_54:8 0.0030
12 net_54:8 net_54:9 0.0010
13 net_54:9 net_54:10 0.0050
14 net_54:11 net_54:10 0.0010
15 net_54:11 net_54:12 0.0050
16 net_54:12 inst_772:A1 0.0050
17 net_54:13 inst_536:A 0.0050
18 net_54:13 net_54:14 0.0080
19 net_54:14 net_54:15 0.0050
20 net_54:15 net_54:16 0.0019
21 net_54:16 net_54:17 0.0050
22 net_54:17 net_54:18 0.0010
23 net_54:18 net_54:19 0.0030
24 net_54:19 net_54:20 0.0010
25 net_54:20 net_54:4 0.0030
26 net_54:21 net_54:22 0.0015
27 net_54:22 net_54:23 0.0050
28 net_54:23 net_54:24 0.0102
29 net_54:24 net_54:25 0.0050
30 net_54:25 net_54:26 0.0025
31 net_54:26 net_54:27 0.0050
32 net_54:27 net_54:28 0.0095
33 net_54:28 net_54:29 0.0050
34 net_54:29 net_54:13 0.0055
35 net_54:30 inst_236:A1 0.0050
36 net_54:31 net_54:30 0.0050
37 net_54:32 net_54:31 0.0014
38 net_54:33 net_54:32 0.0074
39 net_54:33 net_54:34 0.0050
40 net_54:34 net_54:35 0.0162
41 net_54:35 net_54:36 0.0050
42 net_54:36 net_54:37 0.0080
43 net_54:37 net_54:38 0.0050
44 net_54:38 net_54:39 0.0015
45 net_54:39 net_54:40 0.0050
46 net_54:40 inst_49:A1 0.0021
47 net_54:42 net_54:32 0.0050
48 net_54:42 net_54:41 0.0050
*END

*D_NET net_526 3.5625
*CONN
*I inst_756:ZN O
*I inst_302:A1 I
*I inst_303:A1 I
*I inst_304:A1 I
*I inst_314:A1 I
*I inst_326:A2 I
*I inst_393:A1 I
*I inst_410:A1 I
*I inst_421:A1 I
*CAP
1 inst_756:ZN 0.0166
2 inst_302:A1 0.0166
3 inst_303:A1 0.0166
4 inst_304:A1 0.0166
5 inst_314:A1 0.0166
6 inst_326:A2 0.0166
7 inst_393:A1 0.0166
8 inst_410:A1 0.0166
9 inst_421:A1 0.0166
10 net_526:1 0.0175
11 net_526:2 0.0344
12 net_526:3 0.0321
13 net_526:4 0.1428
14 net_526:5 0.1428
15 net_526:6 0.0630
16 net_526:7 0.0592
17 net_526:8 0.0089
18 net_526:9 0.0089
19 net_526:10 0.0156
20 net_526:11 0.0156
21 net_526:12 0.1135
22 net_526:13 0.1442
23 net_526:14 0.0307
24 net_526:15 0.0177
25 net_526:16 0.0399
26 net_526:17 0.0399
27 net_526:18 0.0152
28 net_526:19 0.0374
29 net_526:20 0.0374
30 net_526:21 0.0342
31 net_526:22 0.0342
32 net_526:23 0.0594
33 net_526:24 0.0594
34 net_526:25 0.0294
35 net_526:26 0.0294
36 net_526:27 0.0360
37 net_526:28 0.0360
38 net_526:29 0.0473
39 net_526:30 0.0473
40 net_526:31 0.0210
41 net_526:32 0.0210
42 net_526:33 0.0404
43 net_526:34 0.0658
44 net_526:35 0.0173
45 net_526:36 0.0346
46 net_526:37 0.0310
47 net_526:38 0.0560
48 net_526:39 0.0575
49 net_526:40 0.0194
50 net_526:41 0.0299
51 net_526:42 0.2836
52 net_526:43 0.2836
53 net_526:44 0.0320
54 net_526:45 0.0320
55 net_526:46 0.0330
56 net_526:47 0.0152
57 net_526:48 0.0181
58 net_526:49 0.0334
59 net_526:50 0.0334
60 net_526:51 0.0311
61 net_526:52 0.0738
62 net_526:53 0.0502
63 net_526:54 0.0604
64 net_526:55 0.0604
65 net_526:56 0.1164
66 net_526:57 0.1164
67 net_526:58 0.0177
68 net_526:59 0.0227
69 net_526:60 0.0227
70 net_526:61 0.1269
71 net_526:62 0.1269
*RES
2 net_526:1 inst_302:A1 0.0050
3 net_526:2 net_526:1 0.0010
4 net_526:2 net_526:3 0.0040
5 net_526:3 net_526:4 0.0050
6 net_526:5 net_526:4 0.0129
7 net_526:5 net_526:6 0.0050
8 net_526:6 net_526:7 0.0035
9 net_526:7 inst_393:A1 0.0050
10 net_526:7 net_526:8 0.0050
11 net_526:9 net_526:8 0.0010
12 net_526:9 net_526:10 0.0050
13 net_526:11 net_526:10 0.0010
14 net_526:11 net_526:12 0.0030
15 net_526:13 net_526:12 0.0038
16 net_526:13 net_526:43 0.0030
17 net_526:14 net_526:13 0.0010
18 net_526:14 net_526:15 0.0030
19 net_526:15 net_526:16 0.0050
20 net_526:17 net_526:16 0.0025
21 net_526:17 net_526:18 0.0050
22 net_526:18 inst_421:A1 0.0050
23 net_526:19 inst_303:A1 0.0050
24 net_526:19 net_526:20 0.0035
25 net_526:21 net_526:20 0.0050
26 net_526:22 net_526:21 0.0020
27 net_526:23 net_526:22 0.0050
28 net_526:23 net_526:24 0.0010
29 net_526:25 net_526:24 0.0030
30 net_526:26 net_526:25 0.0010
31 net_526:27 net_526:26 0.0030
32 net_526:27 net_526:28 0.0013
33 net_526:29 net_526:28 0.0030
34 net_526:30 net_526:29 0.0013
35 net_526:31 net_526:30 0.0030
36 net_526:31 net_526:32 0.0010
37 net_526:33 net_526:32 0.0050
38 net_526:34 net_526:33 0.0018
39 net_526:35 net_526:34 0.0050
40 net_526:35 net_526:36 0.0010
41 net_526:36 inst_314:A1 0.0050
42 net_526:36 net_526:37 0.0025
43 net_526:37 net_526:38 0.0010
44 net_526:38 net_526:39 0.0045
45 net_526:40 net_526:39 0.0050
46 net_526:40 net_526:41 0.0011
47 net_526:41 net_526:48 0.0010
48 net_526:42 net_526:41 0.0050
49 net_526:42 net_526:43 0.0084
50 net_526:44 inst_326:A2 0.0050
51 net_526:44 net_526:45 0.0020
52 net_526:46 net_526:34 0.0034
53 net_526:46 net_526:45 0.0050
54 net_526:47 inst_304:A1 0.0050
55 net_526:48 net_526:47 0.0050
56 net_526:49 inst_410:A1 0.0050
57 net_526:50 net_526:49 0.0035
58 net_526:51 net_526:50 0.0050
59 net_526:52 net_526:51 0.0020
60 net_526:53 net_526:52 0.0033
61 net_526:53 net_526:54 0.0050
62 net_526:54 net_526:55 0.0015
63 net_526:55 net_526:56 0.0030
64 net_526:57 net_526:56 0.0042
65 net_526:57 net_526:58 0.0030
66 net_526:58 net_526:59 0.0050
67 net_526:60 net_526:1 0.0050
68 net_526:60 net_526:59 0.0024
69 net_526:61 inst_756:ZN 0.0050
70 net_526:61 net_526:62 0.0145
71 net_526:62 net_526:52 0.0050
*END

*D_NET net_429 1.4000
*CONN
*I inst_689:ZN O
*I inst_696:A I
*I inst_364:A1 I
*I inst_409:A2 I
*CAP
1 inst_689:ZN 0.0099
2 inst_696:A 0.0072
3 inst_364:A1 0.0166
4 inst_409:A2 0.0076
5 net_429:1 0.0155
6 net_429:2 0.1691
7 net_429:3 0.3085
8 net_429:4 0.0159
9 net_429:5 0.1172
10 net_429:6 0.1210
11 net_429:7 0.0628
12 net_429:8 0.0628
13 net_429:9 0.0595
14 net_429:10 0.0182
15 net_429:11 0.0598
16 net_429:12 0.0598
17 net_429:13 0.0448
18 net_429:14 0.0448
19 net_429:15 0.1990
*RES
2 inst_689:ZN net_429:10 0.0010
3 net_429:1 inst_696:A 0.0010
4 net_429:2 net_429:1 0.0050
5 net_429:2 net_429:3 0.0130
6 net_429:3 net_429:15 0.0185
7 net_429:3 net_429:4 0.0050
8 net_429:4 inst_409:A2 0.0010
9 net_429:5 inst_364:A1 0.0050
10 net_429:5 net_429:6 0.0090
11 net_429:7 net_429:6 0.0050
12 net_429:7 net_429:8 0.0068
13 net_429:9 net_429:2 0.0075
14 net_429:9 net_429:8 0.0050
15 net_429:11 net_429:10 0.0050
16 net_429:12 net_429:11 0.0060
17 net_429:13 net_429:12 0.0050
18 net_429:13 net_429:14 0.0054
19 net_429:15 net_429:14 0.0050
*END

*D_NET net_694 1.5728
*CONN
*I inst_230:ZN O
*I inst_232:A1 I
*CAP
1 inst_230:ZN 0.0166
2 inst_232:A1 0.0166
3 net_694:1 0.0966
4 net_694:2 0.1004
5 net_694:3 0.0229
6 net_694:4 0.0229
7 net_694:5 0.6198
8 net_694:6 0.6198
9 net_694:7 0.0107
10 net_694:8 0.0107
11 net_694:9 0.0179
12 net_694:10 0.0179
*RES
2 inst_232:A1 net_694:10 0.0050
3 net_694:1 inst_230:ZN 0.0050
4 net_694:1 net_694:2 0.0090
5 net_694:3 net_694:2 0.0050
6 net_694:3 net_694:4 0.0010
7 net_694:5 net_694:4 0.0050
8 net_694:5 net_694:6 0.0189
9 net_694:7 net_694:6 0.0050
10 net_694:8 net_694:7 0.0010
11 net_694:9 net_694:8 0.0050
12 net_694:9 net_694:10 0.0010
*END

*D_NET net_557 0.1019
*CONN
*I inst_426:ZN O
*I inst_448:A2 I
*CAP
1 inst_426:ZN 0.0181
2 inst_448:A2 0.0166
3 net_557:1 0.0204
4 net_557:2 0.0204
5 net_557:3 0.0264
*RES
2 inst_426:ZN net_557:3 0.0041
3 net_557:1 inst_448:A2 0.0050
4 net_557:2 net_557:1 0.0010
5 net_557:3 net_557:2 0.0050
*END

*D_NET net_129 0.1962
*CONN
*I inst_490:ZN O
*I inst_402:A1 I
*CAP
1 inst_490:ZN 0.0166
2 inst_402:A1 0.0166
3 net_129:1 0.0621
4 net_129:2 0.0643
5 net_129:3 0.0194
6 net_129:4 0.0171
*RES
2 inst_402:A1 net_129:4 0.0050
3 net_129:1 inst_490:ZN 0.0050
4 net_129:2 net_129:1 0.0040
5 net_129:3 net_129:2 0.0010
6 net_129:4 net_129:3 0.0010
*END

*D_NET net_648 0.4239
*CONN
*I inst_484:ZN O
*I inst_765:D I
*CAP
1 inst_484:ZN 0.0072
2 inst_765:D 0.0143
3 net_648:1 0.0155
4 net_648:2 0.0243
5 net_648:3 0.0243
6 net_648:4 0.1261
7 net_648:5 0.1261
8 net_648:6 0.0318
9 net_648:7 0.0318
10 net_648:8 0.0226
*RES
2 inst_765:D net_648:8 0.0021
3 net_648:1 inst_484:ZN 0.0010
4 net_648:2 net_648:1 0.0050
5 net_648:2 net_648:3 0.0015
6 net_648:4 net_648:3 0.0050
7 net_648:5 net_648:4 0.0136
8 net_648:6 net_648:5 0.0050
9 net_648:7 net_648:6 0.0025
10 net_648:8 net_648:7 0.0050
*END

*D_NET net_373 0.0304
*CONN
*I inst_346:ZN O
*I inst_393:A2 I
*CAP
1 inst_346:ZN 0.0152
2 inst_393:A2 0.0152
*RES
2 inst_346:ZN inst_393:A2 0.0021
*END

*D_NET net_119 1.0007
*CONN
*I inst_612:ZN O
*I inst_628:A I
*I inst_40:A2 I
*CAP
1 inst_612:ZN 0.0334
2 inst_628:A 0.0166
3 inst_40:A2 0.0166
4 net_119:1 0.0473
5 net_119:2 0.0458
6 net_119:3 0.0486
7 net_119:4 0.0464
8 net_119:5 0.0293
9 net_119:6 0.0829
10 net_119:7 0.0829
11 net_119:8 0.1239
12 net_119:9 0.1239
13 net_119:10 0.0442
14 net_119:11 0.0442
15 net_119:12 0.0811
16 net_119:13 0.0811
17 net_119:14 0.0263
18 net_119:15 0.0263
*RES
2 inst_612:ZN net_119:5 0.0021
3 inst_612:ZN net_119:4 0.0050
4 inst_40:A2 net_119:15 0.0050
5 net_119:1 inst_628:A 0.0050
6 net_119:1 net_119:2 0.0045
7 net_119:3 net_119:2 0.0010
8 net_119:3 net_119:4 0.0035
9 net_119:6 net_119:5 0.0050
10 net_119:6 net_119:7 0.0075
11 net_119:8 net_119:7 0.0050
12 net_119:8 net_119:9 0.0088
13 net_119:10 net_119:9 0.0050
14 net_119:10 net_119:11 0.0035
15 net_119:12 net_119:11 0.0050
16 net_119:12 net_119:13 0.0109
17 net_119:14 net_119:13 0.0050
18 net_119:14 net_119:15 0.0025
*END

*D_NET net_98 0.0974
*CONN
*I inst_487:ZN O
*I inst_301:A2 I
*CAP
1 inst_487:ZN 0.0256
2 inst_301:A2 0.0080
3 net_98:1 0.0151
4 net_98:2 0.0151
5 net_98:3 0.0336
*RES
2 inst_301:A2 net_98:1 0.0010
3 net_98:1 net_98:2 0.0010
4 net_98:2 net_98:3 0.0010
5 net_98:3 inst_487:ZN 0.0031
*END

*D_NET net_739 0.1484
*CONN
*I inst_210:ZN O
*I inst_143:A1 I
*CAP
1 inst_210:ZN 0.0166
2 inst_143:A1 0.0166
3 net_739:1 0.0595
4 net_739:2 0.0557
*RES
2 inst_210:ZN net_739:2 0.0050
3 net_739:1 inst_143:A1 0.0050
4 net_739:1 net_739:2 0.0045
*END

*D_NET v13_D_19 2.2084
*CONN
*I inst_457:ZN O
*P v13_D_19 O
*CAP
1 v13_D_19 0.0872
2 inst_457:ZN 0.0166
3 v13_D_19:1 0.0279
4 v13_D_19:2 0.0279
5 v13_D_19:3 0.0199
6 v13_D_19:4 0.0199
7 v13_D_19:5 0.3908
8 v13_D_19:6 0.3908
9 v13_D_19:7 0.5644
10 v13_D_19:8 0.5644
11 v13_D_19:9 0.0986
*RES
2 v13_D_19 v13_D_19:9 0.0076
3 v13_D_19:1 inst_457:ZN 0.0050
4 v13_D_19:2 v13_D_19:1 0.0020
5 v13_D_19:3 v13_D_19:2 0.0050
6 v13_D_19:4 v13_D_19:3 0.0015
7 v13_D_19:5 v13_D_19:4 0.0050
8 v13_D_19:6 v13_D_19:5 0.0128
9 v13_D_19:7 v13_D_19:6 0.0050
10 v13_D_19:8 v13_D_19:7 0.0574
11 v13_D_19:9 v13_D_19:8 0.0050
*END

*D_NET net_151 0.0556
*CONN
*I inst_740:ZN O
*I inst_21:A1 I
*CAP
1 inst_740:ZN 0.0278
2 inst_21:A1 0.0278
*RES
2 inst_740:ZN inst_21:A1 0.0041
*END

*D_NET net_356 0.7063
*CONN
*I inst_77:ZN O
*I inst_499:B I
*I inst_4:A2 I
*I inst_389:A1 I
*CAP
1 inst_77:ZN 0.0283
2 inst_499:B 0.0166
3 inst_4:A2 0.0166
4 inst_389:A1 0.0166
5 net_356:1 0.0168
6 net_356:2 0.0168
7 net_356:3 0.0607
8 net_356:4 0.0273
9 net_356:5 0.0507
10 net_356:6 0.0507
11 net_356:7 0.0826
12 net_356:8 0.0826
13 net_356:9 0.0152
14 net_356:10 0.0152
15 net_356:11 0.0467
16 net_356:12 0.0505
17 net_356:13 0.0152
18 net_356:14 0.0200
19 net_356:15 0.0181
20 net_356:16 0.0181
21 net_356:17 0.0410
*RES
2 inst_77:ZN net_356:14 0.0021
3 inst_77:ZN net_356:13 0.0050
4 net_356:1 inst_4:A2 0.0050
5 net_356:1 net_356:2 0.0010
6 net_356:3 net_356:2 0.0050
7 net_356:3 net_356:4 0.0020
8 net_356:4 net_356:5 0.0050
9 net_356:5 net_356:6 0.0035
10 net_356:6 net_356:7 0.0050
11 net_356:7 net_356:8 0.0054
12 net_356:8 net_356:9 0.0050
13 net_356:9 inst_499:B 0.0050
14 net_356:10 inst_389:A1 0.0050
15 net_356:11 net_356:10 0.0050
16 net_356:11 net_356:12 0.0027
17 net_356:13 net_356:12 0.0050
18 net_356:15 net_356:14 0.0050
19 net_356:15 net_356:16 0.0010
20 net_356:17 net_356:3 0.0041
21 net_356:17 net_356:16 0.0050
*END

*D_NET net_53 0.2880
*CONN
*I inst_549:ZN O
*I inst_49:A2 I
*I inst_242:A2 I
*CAP
1 inst_549:ZN 0.0448
2 inst_49:A2 0.0166
3 inst_242:A2 0.0166
4 net_53:1 0.0154
5 net_53:2 0.0154
6 net_53:3 0.0365
7 net_53:4 0.0713
8 net_53:5 0.0713
*RES
2 inst_549:ZN net_53:5 0.0050
3 net_53:1 inst_242:A2 0.0050
4 net_53:1 net_53:2 0.0010
5 net_53:3 inst_549:ZN 0.0041
6 net_53:3 net_53:2 0.0050
7 net_53:4 inst_49:A2 0.0050
8 net_53:4 net_53:5 0.0055
*END

*D_NET net_452 0.3156
*CONN
*I inst_494:ZN O
*I inst_406:A2 I
*CAP
1 inst_494:ZN 0.0166
2 inst_406:A2 0.0166
3 net_452:1 0.0152
4 net_452:2 0.1109
5 net_452:3 0.1109
6 net_452:4 0.0227
7 net_452:5 0.0227
*RES
2 inst_406:A2 net_452:5 0.0050
3 net_452:1 inst_494:ZN 0.0050
4 net_452:2 net_452:1 0.0050
5 net_452:2 net_452:3 0.0095
6 net_452:4 net_452:3 0.0050
7 net_452:5 net_452:4 0.0020
*END

*D_NET net_210 2.8800
*CONN
*I inst_578:ZN O
*I inst_607:A I
*I inst_288:A2 I
*I inst_164:A2 I
*CAP
1 inst_578:ZN 0.0234
2 inst_607:A 0.0166
3 inst_288:A2 0.0166
4 inst_164:A2 0.0166
5 net_210:1 0.0233
6 net_210:2 0.0233
7 net_210:3 0.0088
8 net_210:4 0.2174
9 net_210:5 0.0426
10 net_210:6 0.0426
11 net_210:7 0.0141
12 net_210:8 0.2984
13 net_210:9 0.2984
14 net_210:10 0.0355
15 net_210:11 0.0355
16 net_210:12 0.3841
17 net_210:13 0.3841
18 net_210:14 0.0700
19 net_210:15 0.0782
20 net_210:16 0.0158
21 net_210:17 0.0181
22 net_210:18 0.0181
23 net_210:19 0.0152
24 net_210:20 0.0952
25 net_210:21 0.0952
26 net_210:22 0.1529
27 net_210:23 0.1529
28 net_210:24 0.0317
29 net_210:25 0.0197
30 net_210:26 0.0197
31 net_210:27 0.2162
*RES
2 inst_578:ZN net_210:24 0.0031
3 net_210:1 inst_288:A2 0.0050
4 net_210:2 net_210:1 0.0010
5 net_210:3 net_210:2 0.0050
6 net_210:4 net_210:3 0.0010
7 net_210:4 net_210:5 0.0050
8 net_210:5 net_210:6 0.0010
9 net_210:6 net_210:7 0.0030
10 net_210:7 net_210:8 0.0030
11 net_210:8 net_210:9 0.0105
12 net_210:9 net_210:10 0.0030
13 net_210:11 net_210:10 0.0013
14 net_210:11 net_210:12 0.0030
15 net_210:12 net_210:13 0.0105
16 net_210:13 net_210:14 0.0050
17 net_210:15 net_210:14 0.0070
18 net_210:15 net_210:23 0.0050
19 net_210:16 net_210:15 0.0010
20 net_210:16 net_210:17 0.0050
21 net_210:18 inst_607:A 0.0050
22 net_210:18 net_210:17 0.0010
23 net_210:19 inst_164:A2 0.0050
24 net_210:20 net_210:19 0.0050
25 net_210:21 net_210:20 0.0087
26 net_210:22 net_210:21 0.0050
27 net_210:23 net_210:22 0.0046
28 net_210:25 net_210:24 0.0050
29 net_210:25 net_210:26 0.0015
30 net_210:27 net_210:4 0.0149
31 net_210:27 net_210:26 0.0050
*END

*D_NET net_545 2.9289
*CONN
*I inst_570:ZN O
*I inst_581:A I
*I inst_590:A I
*I inst_591:A I
*I inst_169:A2 I
*I inst_42:A3 I
*I inst_62:A2 I
*CAP
1 inst_570:ZN 0.0166
2 inst_581:A 0.0074
3 inst_590:A 0.0216
4 inst_591:A 0.0166
5 inst_169:A2 0.0166
6 inst_42:A3 0.0072
7 inst_62:A2 0.0166
8 net_545:1 0.0299
9 net_545:2 0.0173
10 net_545:3 0.0672
11 net_545:4 0.0612
12 net_545:5 0.0187
13 net_545:6 0.0187
14 net_545:7 0.0384
15 net_545:8 0.0384
16 net_545:9 0.0304
17 net_545:10 0.0304
18 net_545:11 0.2521
19 net_545:12 0.2521
20 net_545:13 0.0141
21 net_545:14 0.0153
22 net_545:15 0.0153
23 net_545:16 0.0112
24 net_545:17 0.0112
25 net_545:18 0.0244
26 net_545:19 0.0206
27 net_545:20 0.0827
28 net_545:21 0.1018
29 net_545:22 0.0267
30 net_545:23 0.0339
31 net_545:24 0.0339
32 net_545:25 0.5282
33 net_545:26 0.5282
34 net_545:27 0.0729
35 net_545:28 0.0729
36 net_545:29 0.0145
37 net_545:30 0.0145
38 net_545:31 0.0388
39 net_545:32 0.0157
40 net_545:33 0.0178
41 net_545:34 0.0178
42 net_545:35 0.0587
43 net_545:36 0.0587
44 net_545:37 0.0155
45 net_545:38 0.0152
46 net_545:39 0.0306
47 net_545:40 0.0306
48 net_545:41 0.0350
49 net_545:42 0.0152
*RES
2 net_545:1 inst_590:A 0.0031
3 net_545:2 net_545:1 0.0050
4 net_545:2 net_545:3 0.0010
5 net_545:3 net_545:4 0.0045
6 net_545:3 net_545:36 0.0050
7 net_545:4 net_545:37 0.0050
8 net_545:5 net_545:4 0.0050
9 net_545:6 net_545:5 0.0010
10 net_545:7 net_545:6 0.0050
11 net_545:7 net_545:8 0.0010
12 net_545:9 net_545:8 0.0030
13 net_545:10 net_545:9 0.0010
14 net_545:11 net_545:10 0.0030
15 net_545:11 net_545:12 0.0092
16 net_545:13 net_545:12 0.0030
17 net_545:14 net_545:13 0.0030
18 net_545:14 net_545:15 0.0010
19 net_545:16 net_545:15 0.0050
20 net_545:17 net_545:16 0.0010
21 net_545:18 net_545:17 0.0050
22 net_545:18 net_545:19 0.0010
23 net_545:18 net_545:32 0.0050
24 net_545:20 net_545:19 0.0050
25 net_545:21 net_545:20 0.0061
26 net_545:22 net_545:21 0.0015
27 net_545:22 net_545:23 0.0050
28 net_545:23 net_545:24 0.0010
29 net_545:24 net_545:25 0.0030
30 net_545:26 net_545:25 0.0214
31 net_545:26 net_545:27 0.0030
32 net_545:28 net_545:27 0.0025
33 net_545:28 net_545:29 0.0050
34 net_545:30 net_545:29 0.0010
35 net_545:30 net_545:31 0.0050
36 net_545:31 inst_591:A 0.0050
37 net_545:32 inst_581:A 0.0010
38 net_545:33 inst_169:A2 0.0050
39 net_545:34 net_545:33 0.0010
40 net_545:35 net_545:34 0.0050
41 net_545:35 net_545:36 0.0054
42 net_545:37 inst_42:A3 0.0010
43 net_545:38 inst_62:A2 0.0050
44 net_545:39 net_545:38 0.0050
45 net_545:39 net_545:40 0.0014
46 net_545:41 net_545:31 0.0025
47 net_545:41 net_545:40 0.0050
48 net_545:42 inst_570:ZN 0.0050
49 net_545:42 net_545:21 0.0050
*END

*D_NET net_284 1.1871
*CONN
*I inst_243:ZN O
*I inst_610:A I
*I inst_498:B I
*I inst_36:A2 I
*CAP
1 inst_243:ZN 0.0166
2 inst_610:A 0.0166
3 inst_498:B 0.0166
4 inst_36:A2 0.0166
5 net_284:1 0.0295
6 net_284:2 0.1423
7 net_284:3 0.1423
8 net_284:4 0.0152
9 net_284:5 0.0274
10 net_284:6 0.0274
11 net_284:7 0.3074
12 net_284:8 0.2312
13 net_284:9 0.0257
14 net_284:10 0.0441
15 net_284:11 0.0441
16 net_284:12 0.0839
*RES
2 net_284:1 inst_610:A 0.0050
3 net_284:1 net_284:9 0.0025
4 net_284:1 net_284:2 0.0050
5 net_284:2 net_284:3 0.0109
6 net_284:3 net_284:4 0.0050
7 net_284:4 inst_498:B 0.0050
8 net_284:5 inst_36:A2 0.0050
9 net_284:5 net_284:6 0.0015
10 net_284:7 net_284:6 0.0050
11 net_284:7 net_284:8 0.0170
12 net_284:8 net_284:9 0.0050
13 net_284:10 inst_243:ZN 0.0050
14 net_284:11 net_284:10 0.0025
15 net_284:12 net_284:7 0.0102
16 net_284:12 net_284:11 0.0050
*END

*D_NET net_168 2.2179
*CONN
*I inst_604:ZN O
*I inst_625:A I
*I inst_272:A2 I
*I inst_330:A2 I
*CAP
1 inst_604:ZN 0.0166
2 inst_625:A 0.0166
3 inst_272:A2 0.0166
4 inst_330:A2 0.0166
5 net_168:1 0.0240
6 net_168:2 0.1026
7 net_168:3 0.4436
8 net_168:4 0.3486
9 net_168:5 0.1986
10 net_168:6 0.2024
11 net_168:7 0.0374
12 net_168:8 0.0336
13 net_168:9 0.0479
14 net_168:10 0.0479
15 net_168:11 0.0540
16 net_168:12 0.0540
17 net_168:13 0.0204
18 net_168:14 0.0204
19 net_168:15 0.0560
20 net_168:16 0.0560
21 net_168:17 0.0965
22 net_168:18 0.0965
23 net_168:19 0.0955
24 net_168:20 0.0955
25 net_168:21 0.0202
*RES
2 net_168:1 inst_625:A 0.0050
3 net_168:1 net_168:21 0.0015
4 net_168:1 net_168:2 0.0050
5 net_168:2 net_168:3 0.0054
6 net_168:3 net_168:4 0.0231
7 net_168:3 net_168:12 0.0050
8 net_168:4 net_168:5 0.0050
9 net_168:5 net_168:6 0.0270
10 net_168:6 net_168:7 0.0050
11 net_168:7 net_168:8 0.0020
12 net_168:8 net_168:9 0.0050
13 net_168:9 net_168:10 0.0025
14 net_168:10 inst_330:A2 0.0050
15 net_168:11 inst_272:A2 0.0050
16 net_168:11 net_168:12 0.0030
17 net_168:13 inst_604:ZN 0.0050
18 net_168:14 net_168:13 0.0010
19 net_168:15 net_168:14 0.0050
20 net_168:15 net_168:16 0.0034
21 net_168:17 net_168:16 0.0050
22 net_168:18 net_168:17 0.0070
23 net_168:19 net_168:18 0.0050
24 net_168:19 net_168:20 0.0047
25 net_168:21 net_168:20 0.0050
*END

*D_NET net_560 0.7008
*CONN
*I inst_61:ZN O
*I inst_126:A1 I
*CAP
1 inst_61:ZN 0.0166
2 inst_126:A1 0.0166
3 net_560:1 0.0475
4 net_560:2 0.0475
5 net_560:3 0.0144
6 net_560:4 0.0183
7 net_560:5 0.0870
8 net_560:6 0.0870
9 net_560:7 0.0147
10 net_560:8 0.0147
11 net_560:9 0.1683
12 net_560:10 0.1683
*RES
2 inst_126:A1 net_560:10 0.0050
3 net_560:1 inst_61:ZN 0.0050
4 net_560:1 net_560:2 0.0030
5 net_560:3 net_560:2 0.0050
6 net_560:3 net_560:4 0.0010
7 net_560:5 net_560:4 0.0050
8 net_560:5 net_560:6 0.0021
9 net_560:7 net_560:6 0.0050
10 net_560:8 net_560:7 0.0010
11 net_560:9 net_560:8 0.0050
12 net_560:9 net_560:10 0.0155
*END

*D_NET net_774 1.5866
*CONN
*I inst_793:Z O
*I inst_764:CK I
*CAP
1 inst_793:Z 0.3886
2 net_774:1 0.2468
3 net_774:2 0.4002
4 net_774:3 0.3652
5 inst_764:CK 0.1857
*RES
2 inst_793:Z net_774:1 0.0562
3 net_774:1 net_774:2 0.0882
4 net_774:2 net_774:3 0.4386
5 net_774:3 inst_764:CK 0.2715
*END

*D_NET net_741 1.6957
*CONN
*I inst_423:ZN O
*I inst_225:A1 I
*CAP
1 inst_423:ZN 0.0166
2 inst_225:A1 0.0166
3 net_741:1 0.0235
4 net_741:2 0.0235
5 net_741:3 0.0218
6 net_741:4 0.0218
7 net_741:5 0.0177
8 net_741:6 0.0141
9 net_741:7 0.6904
10 net_741:8 0.6904
11 net_741:9 0.0141
12 net_741:10 0.0177
13 net_741:11 0.0095
14 net_741:12 0.0095
15 net_741:13 0.0544
16 net_741:14 0.0544
*RES
2 inst_225:A1 net_741:14 0.0050
3 net_741:1 inst_423:ZN 0.0050
4 net_741:1 net_741:2 0.0015
5 net_741:3 net_741:2 0.0050
6 net_741:3 net_741:4 0.0010
7 net_741:5 net_741:4 0.0050
8 net_741:6 net_741:5 0.0030
9 net_741:7 net_741:6 0.0030
10 net_741:7 net_741:8 0.0294
11 net_741:9 net_741:8 0.0030
12 net_741:10 net_741:9 0.0030
13 net_741:11 net_741:10 0.0050
14 net_741:12 net_741:11 0.0010
15 net_741:13 net_741:12 0.0050
16 net_741:13 net_741:14 0.0065
*END

*D_NET net_477 0.2804
*CONN
*I inst_175:ZN O
*I inst_417:A2 I
*CAP
1 inst_175:ZN 0.0166
2 inst_417:A2 0.0166
3 net_477:1 0.0152
4 net_477:2 0.0526
5 net_477:3 0.0526
6 net_477:4 0.0634
7 net_477:5 0.0634
*RES
2 inst_417:A2 net_477:5 0.0050
3 net_477:1 inst_175:ZN 0.0050
4 net_477:2 net_477:1 0.0050
5 net_477:3 net_477:2 0.0041
6 net_477:4 net_477:3 0.0050
7 net_477:4 net_477:5 0.0045
*END

*D_NET net_439 0.0829
*CONN
*I inst_367:ZN O
*I inst_400:A2 I
*CAP
1 inst_367:ZN 0.0334
2 inst_400:A2 0.0080
3 net_439:1 0.0415
*RES
2 inst_400:A2 net_439:1 0.0010
3 net_439:1 inst_367:ZN 0.0041
*END

*D_NET net_385 2.2860
*CONN
*I inst_678:ZN O
*I inst_684:A I
*I inst_691:A I
*I inst_349:A1 I
*I inst_704:A I
*I inst_387:A1 I
*I inst_395:A1 I
*I inst_416:A1 I
*I inst_442:A1 I
*I inst_501:S I
*CAP
1 inst_678:ZN 0.0176
2 inst_684:A 0.0166
3 inst_691:A 0.0072
4 inst_349:A1 0.0166
5 inst_704:A 0.0154
6 inst_387:A1 0.0166
7 inst_395:A1 0.0166
8 inst_416:A1 0.0166
9 inst_442:A1 0.0166
10 inst_501:S 0.0166
11 net_385:1 0.0407
12 net_385:2 0.1277
13 net_385:3 0.1010
14 net_385:4 0.0913
15 net_385:5 0.0913
16 net_385:6 0.0176
17 net_385:7 0.0658
18 net_385:8 0.0596
19 net_385:9 0.0258
20 net_385:10 0.0145
21 net_385:11 0.0339
22 net_385:12 0.1232
23 net_385:13 0.0155
24 net_385:14 0.0237
25 net_385:15 0.0152
26 net_385:16 0.0145
27 net_385:17 0.0415
28 net_385:18 0.1587
29 net_385:19 0.1684
30 net_385:20 0.0249
31 net_385:21 0.0326
32 net_385:22 0.0326
33 net_385:23 0.1651
34 net_385:24 0.2243
35 net_385:25 0.0591
36 net_385:26 0.0218
37 net_385:27 0.0218
38 net_385:28 0.1007
39 net_385:29 0.0178
40 net_385:30 0.0208
41 net_385:31 0.0246
42 net_385:32 0.0218
43 net_385:33 0.0218
44 net_385:34 0.0152
45 net_385:35 0.0346
46 net_385:36 0.0152
47 net_385:37 0.0189
48 net_385:38 0.0259
*RES
2 net_385:1 inst_684:A 0.0050
3 net_385:1 net_385:2 0.0045
4 net_385:2 net_385:3 0.0080
5 net_385:3 net_385:29 0.0010
6 net_385:3 net_385:4 0.0050
7 net_385:4 net_385:5 0.0061
8 net_385:5 net_385:6 0.0050
9 net_385:6 net_385:7 0.0010
10 net_385:7 net_385:8 0.0070
11 net_385:7 net_385:13 0.0050
12 net_385:8 net_385:9 0.0050
13 net_385:9 net_385:10 0.0010
14 net_385:10 net_385:11 0.0050
15 net_385:11 net_385:12 0.0030
16 net_385:12 inst_501:S 0.0050
17 net_385:12 net_385:28 0.0150
18 net_385:13 inst_691:A 0.0010
19 net_385:14 inst_704:A 0.0021
20 net_385:15 net_385:14 0.0050
21 net_385:16 net_385:15 0.0050
22 net_385:17 net_385:16 0.0010
23 net_385:18 net_385:17 0.0050
24 net_385:19 inst_387:A1 0.0050
25 net_385:19 net_385:18 0.0135
26 net_385:20 net_385:19 0.0010
27 net_385:21 net_385:20 0.0050
28 net_385:22 net_385:21 0.0026
29 net_385:23 net_385:22 0.0050
30 net_385:24 net_385:23 0.0061
31 net_385:24 net_385:33 0.0050
32 net_385:25 net_385:24 0.0025
33 net_385:26 net_385:25 0.0050
34 net_385:26 net_385:27 0.0013
35 net_385:28 net_385:27 0.0050
36 net_385:29 inst_349:A1 0.0050
37 net_385:30 inst_395:A1 0.0050
38 net_385:30 net_385:31 0.0010
39 net_385:32 net_385:31 0.0050
40 net_385:32 net_385:33 0.0015
41 net_385:34 inst_442:A1 0.0050
42 net_385:35 net_385:17 0.0041
43 net_385:35 net_385:34 0.0050
44 net_385:36 inst_416:A1 0.0050
45 net_385:37 net_385:9 0.0020
46 net_385:37 net_385:36 0.0050
47 net_385:38 inst_678:ZN 0.0021
48 net_385:38 net_385:2 0.0050
*END

*D_NET net_259 0.4627
*CONN
*I inst_151:ZN O
*I inst_306:A2 I
*I inst_217:A2 I
*CAP
1 inst_151:ZN 0.0166
2 inst_306:A2 0.0166
3 inst_217:A2 0.0143
4 net_259:1 0.0152
5 net_259:2 0.1697
6 net_259:3 0.1251
7 net_259:4 0.0152
8 net_259:5 0.0227
9 net_259:6 0.0152
10 net_259:7 0.0522
*RES
2 inst_217:A2 net_259:5 0.0021
3 net_259:1 inst_306:A2 0.0050
4 net_259:2 net_259:1 0.0050
5 net_259:2 net_259:7 0.0047
6 net_259:3 net_259:2 0.0095
7 net_259:3 net_259:4 0.0050
8 net_259:4 net_259:5 0.0050
9 net_259:6 inst_151:ZN 0.0050
10 net_259:7 net_259:6 0.0050
*END

*D_NET net_269 0.5398
*CONN
*I inst_619:ZN O
*I inst_287:A1 I
*I inst_310:A1 I
*I inst_176:A3 I
*CAP
1 inst_619:ZN 0.0180
2 inst_287:A1 0.0166
3 inst_310:A1 0.0166
4 inst_176:A3 0.0166
5 net_269:1 0.0152
6 net_269:2 0.0342
7 net_269:3 0.0307
8 net_269:4 0.0152
9 net_269:5 0.0159
10 net_269:6 0.0187
11 net_269:7 0.0232
12 net_269:8 0.0232
13 net_269:9 0.0106
14 net_269:10 0.0106
15 net_269:11 0.0522
16 net_269:12 0.0522
17 net_269:13 0.0140
18 net_269:14 0.0140
19 net_269:15 0.0213
20 net_269:16 0.0213
21 net_269:17 0.0179
22 net_269:18 0.0179
23 net_269:19 0.0319
24 net_269:20 0.0316
*RES
2 inst_619:ZN net_269:5 0.0010
3 inst_619:ZN net_269:6 0.0010
4 net_269:1 inst_287:A1 0.0050
5 net_269:2 net_269:1 0.0050
6 net_269:2 net_269:20 0.0010
7 net_269:3 net_269:2 0.0014
8 net_269:3 net_269:4 0.0050
9 net_269:4 net_269:5 0.0050
10 net_269:6 net_269:7 0.0050
11 net_269:8 net_269:7 0.0010
12 net_269:8 net_269:9 0.0050
13 net_269:10 net_269:9 0.0010
14 net_269:10 net_269:11 0.0050
15 net_269:12 net_269:11 0.0021
16 net_269:12 net_269:13 0.0050
17 net_269:13 net_269:14 0.0010
18 net_269:14 net_269:15 0.0050
19 net_269:16 inst_176:A3 0.0050
20 net_269:16 net_269:15 0.0010
21 net_269:17 inst_310:A1 0.0050
22 net_269:17 net_269:18 0.0010
23 net_269:19 net_269:18 0.0050
24 net_269:20 net_269:19 0.0027
*END

*D_NET net_548 0.1272
*CONN
*I inst_419:ZN O
*I inst_447:A1 I
*CAP
1 inst_419:ZN 0.0166
2 inst_447:A1 0.0166
3 net_548:1 0.0152
4 net_548:2 0.0318
5 net_548:3 0.0318
6 net_548:4 0.0152
*RES
2 inst_419:ZN net_548:4 0.0050
3 net_548:1 inst_447:A1 0.0050
4 net_548:2 net_548:1 0.0050
5 net_548:3 net_548:2 0.0014
6 net_548:4 net_548:3 0.0050
*END

*D_NET net_469 0.0321
*CONN
*I inst_754:ZN O
*I inst_117:A1 I
*CAP
1 inst_754:ZN 0.0160
2 inst_117:A1 0.0160
*RES
2 inst_754:ZN inst_117:A1 0.0021
*END

*D_NET net_501 1.0770
*CONN
*I inst_590:ZN O
*I inst_620:A I