*SPEF "IEEE 1481-1998"
*DESIGN "changes"
*DATE "Tue Dec 02 18:56:30 2014"
*VENDOR "TAU 2015 Contest"
*PROGRAM "Benchmark Parasitic Generator"
*VERSION "0.0"
*DESIGN_FLOW "NETLIST_TYPE_VERILOG"
*DIVIDER /
*DELIMITER :
*BUS_DELIMITER [ ]
*T_UNIT 1 PS
*C_UNIT 1 FF
*R_UNIT 1 KOHM
*L_UNIT 1 UH

*D_NET TAUNET_13 1.7439
*CONN
*I inst_18963:ZN O
*I TAUGATE_13:A I
*CAP
1 inst_18963:ZN 0.2611
2 TAUNET_13:1 0.4098
3 TAUNET_13:2 0.5009
4 TAUNET_13:3 0.2843
5 TAUGATE_13:A 0.2878
*RES
2 inst_18963:ZN TAUNET_13:1 0.1659
3 TAUNET_13:1 TAUNET_13:2 0.2742
4 TAUNET_13:2 TAUNET_13:3 0.3494
5 TAUNET_13:3 TAUGATE_13:A 0.1485
*END

*D_NET TAUNET_12 1.3760
*CONN
*I inst_587:ZN O
*I TAUGATE_12:A I
*CAP
1 inst_587:ZN 0.2110
2 TAUNET_12:1 0.3070
3 TAUNET_12:2 0.3583
4 TAUNET_12:3 0.1395
5 TAUNET_12:4 0.0646
6 TAUNET_12:5 0.0794
7 TAUGATE_12:A 0.2161
*RES
2 inst_587:ZN TAUNET_12:1 0.1614
3 TAUNET_12:1 TAUNET_12:2 0.3312
4 TAUNET_12:2 TAUNET_12:3 0.3755
5 TAUNET_12:3 TAUNET_12:4 0.4644
6 TAUNET_12:4 TAUNET_12:5 0.4559
7 TAUNET_12:5 TAUGATE_12:A 0.4050
*END

*D_NET net_9668 4.8652
*CONN
*I TAUGATE_14:Z O
*I inst_15102:A I
*I inst_2886:A2 I
*I inst_20029:B1 I
*I inst_1094:A1 I
*CAP
1 TAUGATE_14:Z 0.1670
2 net_9668:1 0.2440
3 net_9668:2 0.0332
4 inst_15102:A 0.0406
5 net_9668:3 0.3706
6 net_9668:4 0.0740
7 net_9668:5 0.4871
8 inst_2886:A2 0.4951
9 net_9668:6 0.3356
10 net_9668:7 0.3995
11 net_9668:8 0.3845
12 net_9668:9 0.4708
13 net_9668:10 0.3056
14 inst_20029:B1 0.3464
15 net_9668:11 0.3276
16 inst_1094:A1 0.3833
*RES
2 TAUGATE_14:Z net_9668:1 0.2732
3 net_9668:1 net_9668:2 0.0073
4 net_9668:2 inst_15102:A 0.1308
5 net_9668:1 net_9668:3 0.4125
6 net_9668:3 net_9668:4 0.0565
7 net_9668:4 net_9668:5 0.1285
8 net_9668:5 inst_2886:A2 0.0292
9 net_9668:3 net_9668:6 0.0305
10 net_9668:6 net_9668:7 0.2383
11 net_9668:7 net_9668:8 0.4020
12 net_9668:8 net_9668:9 0.2529
13 net_9668:9 net_9668:10 0.2665
14 net_9668:10 inst_20029:B1 0.4354
15 net_9668:4 net_9668:11 0.3292
16 net_9668:11 inst_1094:A1 0.0716
*END

*D_NET net_1307 1.3846
*CONN
*I TAUGATE_50:Z O
*I inst_3487:A1 I
*CAP
1 TAUGATE_50:Z 0.1922
2 net_1307:1 0.1322
3 net_1307:2 0.1905
4 net_1307:3 0.4017
5 inst_3487:A1 0.4680
*RES
2 TAUGATE_50:Z net_1307:1 0.2976
3 net_1307:1 net_1307:2 0.2331
4 net_1307:2 net_1307:3 0.2927
5 net_1307:3 inst_3487:A1 0.3943
*END

*D_NET net_1775 1.8870
*CONN
*I TAUGATE_35:Z O
*I inst_4834:A1 I
*I inst_15894:A I
*CAP
1 TAUGATE_35:Z 0.1955
2 net_1775:1 0.4889
3 net_1775:2 0.0703
4 inst_4834:A1 0.3298
5 net_1775:3 0.3990
6 inst_15894:A 0.4035
*RES
2 TAUGATE_35:Z net_1775:1 0.4131
3 net_1775:1 net_1775:2 0.3310
4 net_1775:2 inst_4834:A1 0.2621
5 net_1775:1 net_1775:3 0.0219
6 net_1775:3 inst_15894:A 0.0830
*END

*D_NET net_1685 1.6212
*CONN
*I TAUGATE_26:Z O
*I inst_15437:A I
*CAP
1 TAUGATE_26:Z 0.1250
2 net_1685:1 0.4976
3 net_1685:2 0.3591
4 net_1685:3 0.2780
5 net_1685:4 0.2022
6 inst_15437:A 0.1593
*RES
2 TAUGATE_26:Z net_1685:1 0.4382
3 net_1685:1 net_1685:2 0.3498
4 net_1685:2 net_1685:3 0.4055
5 net_1685:3 net_1685:4 0.4519
6 net_1685:4 inst_15437:A 0.4658
*END

*D_NET net_13289 1.1222
*CONN
*I TAUGATE_33:Z O
*I inst_251:B I
*CAP
1 TAUGATE_33:Z 0.4019
2 net_13289:1 0.2503
3 inst_251:B 0.4700
*RES
2 TAUGATE_33:Z net_13289:1 0.3789
3 net_13289:1 inst_251:B 0.3545
*END

*D_NET net_849 2.0398
*CONN
*I TAUGATE_47:Z O
*I inst_17007:A I
*I inst_17026:A I
*CAP
1 TAUGATE_47:Z 0.4316
2 net_849:1 0.4734
3 net_849:2 0.0376
4 inst_17007:A 0.0972
5 net_849:3 0.3840
6 net_849:4 0.2434
7 inst_17026:A 0.3726
*RES
2 TAUGATE_47:Z net_849:1 0.3594
3 net_849:1 net_849:2 0.0525
4 net_849:2 inst_17007:A 0.3248
5 net_849:2 net_849:3 0.2980
6 net_849:3 net_849:4 0.2454
7 net_849:4 inst_17026:A 0.4670
*END

*D_NET TAUNET_35 1.5589
*CONN
*I inst_16369:ZN O
*I TAUGATE_35:A I
*CAP
1 inst_16369:ZN 0.1376
2 TAUNET_35:1 0.1288
3 TAUNET_35:2 0.3022
4 TAUNET_35:3 0.1405
5 TAUNET_35:4 0.0668
6 TAUNET_35:5 0.3699
7 TAUGATE_35:A 0.4131
*RES
2 inst_16369:ZN TAUNET_35:1 0.4004
3 TAUNET_35:1 TAUNET_35:2 0.4814
4 TAUNET_35:2 TAUNET_35:3 0.1341
5 TAUNET_35:3 TAUNET_35:4 0.3915
6 TAUNET_35:4 TAUNET_35:5 0.0282
7 TAUNET_35:5 TAUGATE_35:A 0.3089
*END

*D_NET net_8791 1.9354
*CONN
*I TAUGATE_53:Z O
*I inst_2494:C1 I
*I inst_13593:A I
*CAP
1 TAUGATE_53:Z 0.3105
2 net_8791:1 0.2034
3 net_8791:2 0.1592
4 inst_2494:C1 0.3147
5 net_8791:3 0.2731
6 net_8791:4 0.1525
7 net_8791:5 0.0518
8 net_8791:6 0.2548
9 inst_13593:A 0.2154
*RES
2 TAUGATE_53:Z net_8791:1 0.2761
3 net_8791:1 net_8791:2 0.3643
4 net_8791:2 inst_2494:C1 0.2288
5 net_8791:2 net_8791:3 0.4921
6 net_8791:3 net_8791:4 0.1648
7 net_8791:4 net_8791:5 0.1855
8 net_8791:5 net_8791:6 0.0112
9 net_8791:6 inst_13593:A 0.3530
*END

*D_NET net_20071 5.1504
*CONN
*I TAUGATE_19:Z O
*I inst_8341:A1 I
*I inst_8429:A2 I
*I inst_213:A I
*I inst_12433:A I
*I inst_8426:A1 I
*CAP
1 TAUGATE_19:Z 0.2239
2 net_20071:1 0.4230
3 inst_8429:A2 0.1494
4 net_20071:2 0.4381
5 net_20071:3 0.3484
6 inst_8341:A1 0.0801
7 net_20071:4 0.0510
8 inst_213:A 0.1600
9 net_20071:5 0.3388
10 net_20071:6 0.4657
11 net_20071:7 0.3595
12 net_20071:8 0.2471
13 net_20071:9 0.0832
14 inst_12433:A 0.0580
15 net_20071:10 0.4950
16 net_20071:11 0.0413
17 net_20071:12 0.4651
18 net_20071:13 0.4065
19 inst_8426:A1 0.3164
*RES
2 TAUGATE_19:Z net_20071:1 0.3290
3 net_20071:1 inst_8429:A2 0.1620
4 net_20071:1 net_20071:2 0.1392
5 net_20071:2 net_20071:3 0.1891
6 net_20071:3 inst_8341:A1 0.0464
7 net_20071:3 net_20071:4 0.1748
8 net_20071:4 inst_213:A 0.4787
9 net_20071:1 net_20071:5 0.3736
10 net_20071:5 net_20071:6 0.0395
11 net_20071:6 net_20071:7 0.3644
12 net_20071:7 net_20071:8 0.0829
13 net_20071:8 net_20071:9 0.1977
14 net_20071:9 inst_12433:A 0.4694
15 net_20071:7 net_20071:10 0.3513
16 net_20071:10 net_20071:11 0.1165
17 net_20071:11 net_20071:12 0.0986
18 net_20071:12 net_20071:13 0.2243
19 net_20071:13 inst_8426:A1 0.1286
*END

*D_NET net_5408 1.4306
*CONN
*I TAUGATE_13:Z O
*I inst_20032:A2 I
*CAP
1 TAUGATE_13:Z 0.2482
2 net_5408:1 0.1533
3 net_5408:2 0.4091
4 net_5408:3 0.2613
5 inst_20032:A2 0.3587
*RES
2 TAUGATE_13:Z net_5408:1 0.1869
3 net_5408:1 net_5408:2 0.4974
4 net_5408:2 net_5408:3 0.3047
5 net_5408:3 inst_20032:A2 0.1200
*END

*D_NET TAUNET_46 0.5270
*CONN
*I inst_18773:ZN O
*I TAUGATE_46:A I
*CAP
1 inst_18773:ZN 0.1210
2 TAUNET_46:1 0.1014
3 TAUNET_46:2 0.0283
4 TAUGATE_46:A 0.2763
*RES
2 inst_18773:ZN TAUNET_46:1 0.2945
3 TAUNET_46:1 TAUNET_46:2 0.3177
4 TAUNET_46:2 TAUGATE_46:A 0.2101
*END

*D_NET net_1123 1.4286
*CONN
*I TAUGATE_58:Z O
*I inst_4869:A2 I
*CAP
1 TAUGATE_58:Z 0.2046
2 net_1123:1 0.1317
3 net_1123:2 0.3617
4 net_1123:3 0.0856
5 net_1123:4 0.3629
6 inst_4869:A2 0.2821
*RES
2 TAUGATE_58:Z net_1123:1 0.3900
3 net_1123:1 net_1123:2 0.0557
4 net_1123:2 net_1123:3 0.1253
5 net_1123:3 net_1123:4 0.2716
6 net_1123:4 inst_4869:A2 0.3735
*END

*D_NET TAUNET_24 1.5454
*CONN
*I inst_1762:ZN O
*I TAUGATE_24:A I
*CAP
1 inst_1762:ZN 0.3323
2 TAUNET_24:1 0.0362
3 TAUNET_24:2 0.4966
4 TAUNET_24:3 0.4101
5 TAUGATE_24:A 0.2702
*RES
2 inst_1762:ZN TAUNET_24:1 0.2135
3 TAUNET_24:1 TAUNET_24:2 0.0419
4 TAUNET_24:2 TAUNET_24:3 0.2773
5 TAUNET_24:3 TAUGATE_24:A 0.0903
*END

*D_NET TAUNET_16 2.3457
*CONN
*I inst_13816:ZN O
*I TAUGATE_16:A I
*CAP
1 inst_13816:ZN 0.4602
2 TAUNET_16:1 0.2009
3 TAUNET_16:2 0.3114
4 TAUNET_16:3 0.3090
5 TAUNET_16:4 0.3972
6 TAUNET_16:5 0.4228
7 TAUGATE_16:A 0.2443
*RES
2 inst_13816:ZN TAUNET_16:1 0.2458
3 TAUNET_16:1 TAUNET_16:2 0.3734
4 TAUNET_16:2 TAUNET_16:3 0.1567
5 TAUNET_16:3 TAUNET_16:4 0.1247
6 TAUNET_16:4 TAUNET_16:5 0.2439
7 TAUNET_16:5 TAUGATE_16:A 0.2588
*END

*D_NET net_19646 0.9945
*CONN
*I TAUGATE_45:Z O
*I inst_5305:A4 I
*CAP
1 TAUGATE_45:Z 0.3528
2 net_19646:1 0.4436
3 inst_5305:A4 0.1981
*RES
2 TAUGATE_45:Z net_19646:1 0.3275
3 net_19646:1 inst_5305:A4 0.0169
*END

*D_NET net_7260 5.8279
*CONN
*I TAUGATE_48:Z O
*I inst_16929:A I
*I inst_4142:A1 I
*I inst_10013:A1 I
*I inst_10411:A2 I
*I inst_4151:A1 I
*CAP
1 TAUGATE_48:Z 0.4684
2 net_7260:1 0.0579
3 net_7260:2 0.0423
4 net_7260:3 0.2861
5 inst_4151:A1 0.4278
6 net_7260:4 0.4947
7 net_7260:5 0.3666
8 inst_4142:A1 0.2854
9 net_7260:6 0.2044
10 net_7260:7 0.1531
11 net_7260:8 0.3886
12 net_7260:9 0.2618
13 inst_10013:A1 0.2468
14 net_7260:10 0.0199
15 net_7260:11 0.4145
16 net_7260:12 0.1459
17 inst_10411:A2 0.1130
18 net_7260:13 0.3663
19 net_7260:14 0.2540
20 net_7260:15 0.0526
21 net_7260:16 0.2388
22 net_7260:17 0.1787
23 inst_16929:A 0.3603
*RES
2 TAUGATE_48:Z net_7260:1 0.3875
3 net_7260:1 net_7260:2 0.4796
4 net_7260:2 net_7260:3 0.3740
5 net_7260:3 inst_4151:A1 0.1554
6 net_7260:2 net_7260:4 0.4464
7 net_7260:4 net_7260:5 0.2438
8 net_7260:5 inst_4142:A1 0.2969
9 net_7260:3 net_7260:6 0.4002
10 net_7260:6 net_7260:7 0.3652
11 net_7260:7 net_7260:8 0.1857
12 net_7260:8 net_7260:9 0.0562
13 net_7260:9 inst_10013:A1 0.0882
14 net_7260:9 net_7260:10 0.1026
15 net_7260:10 net_7260:11 0.1939
16 net_7260:11 net_7260:12 0.1095
17 net_7260:12 inst_10411:A2 0.0212
18 net_7260:3 net_7260:13 0.0603
19 net_7260:13 net_7260:14 0.0863
20 net_7260:14 net_7260:15 0.3102
21 net_7260:15 net_7260:16 0.1239
22 net_7260:16 net_7260:17 0.2473
23 net_7260:17 inst_16929:A 0.0055
*END

*D_NET TAUNET_31 1.2459
*CONN
*I inst_3341:ZN O
*I TAUGATE_31:A I
*CAP
1 inst_3341:ZN 0.2412
2 TAUNET_31:1 0.4441
3 TAUNET_31:2 0.4218
4 TAUNET_31:3 0.0848
5 TAUNET_31:4 0.0266
6 TAUGATE_31:A 0.0274
*RES
2 inst_3341:ZN TAUNET_31:1 0.4218
3 TAUNET_31:1 TAUNET_31:2 0.2061
4 TAUNET_31:2 TAUNET_31:3 0.2110
5 TAUNET_31:3 TAUNET_31:4 0.4583
6 TAUNET_31:4 TAUGATE_31:A 0.3985
*END

*D_NET TAUNET_25 1.9898
*CONN
*I inst_8974:ZN O
*I TAUGATE_25:A I
*CAP
1 inst_8974:ZN 0.0725
2 TAUNET_25:1 0.3124
3 TAUNET_25:2 0.3685
4 TAUNET_25:3 0.4317
5 TAUNET_25:4 0.1801
6 TAUNET_25:5 0.2826
7 TAUGATE_25:A 0.3420
*RES
2 inst_8974:ZN TAUNET_25:1 0.0965
3 TAUNET_25:1 TAUNET_25:2 0.2555
4 TAUNET_25:2 TAUNET_25:3 0.1304
5 TAUNET_25:3 TAUNET_25:4 0.3675
6 TAUNET_25:4 TAUNET_25:5 0.4634
7 TAUNET_25:5 TAUGATE_25:A 0.2869
*END

*D_NET net_16191 0.5511
*CONN
*I TAUGATE_29:Z O
*I inst_5533:A2 I
*CAP
1 TAUGATE_29:Z 0.1182
2 net_16191:1 0.0608
3 inst_5533:A2 0.3721
*RES
2 TAUGATE_29:Z net_16191:1 0.4648
3 net_16191:1 inst_5533:A2 0.2376
*END

*D_NET TAUNET_27 0.8353
*CONN
*I inst_18115:ZN O
*I TAUGATE_27:A I
*CAP
1 inst_18115:ZN 0.3081
2 TAUNET_27:1 0.0264
3 TAUNET_27:2 0.2502
4 TAUGATE_27:A 0.2506
*RES
2 inst_18115:ZN TAUNET_27:1 0.4486
3 TAUNET_27:1 TAUNET_27:2 0.0641
4 TAUNET_27:2 TAUGATE_27:A 0.0138
*END

*D_NET TAUNET_28 0.7959
*CONN
*I inst_10640:ZN O
*I TAUGATE_28:A I
*CAP
1 inst_10640:ZN 0.0204
2 TAUNET_28:1 0.1001
3 TAUNET_28:2 0.2747
4 TAUNET_28:3 0.1704
5 TAUGATE_28:A 0.2303
*RES
2 inst_10640:ZN TAUNET_28:1 0.0121
3 TAUNET_28:1 TAUNET_28:2 0.0620
4 TAUNET_28:2 TAUNET_28:3 0.0267
5 TAUNET_28:3 TAUGATE_28:A 0.1278
*END

*D_NET TAUNET_57 1.5058
*CONN
*I inst_13826:ZN O
*I TAUGATE_57:A I
*CAP
1 inst_13826:ZN 0.3621
2 TAUNET_57:1 0.3490
3 TAUNET_57:2 0.4751
4 TAUGATE_57:A 0.3195
*RES
2 inst_13826:ZN TAUNET_57:1 0.4748
3 TAUNET_57:1 TAUNET_57:2 0.2505
4 TAUNET_57:2 TAUGATE_57:A 0.2036
*END

*D_NET net_19996 1.2849
*CONN
*I TAUGATE_38:Z O
*I inst_3590:A1 I
*CAP
1 TAUGATE_38:Z 0.0185
2 net_19996:1 0.2437
3 net_19996:2 0.3641
4 net_19996:3 0.1411
5 net_19996:4 0.2452
6 inst_3590:A1 0.2723
*RES
2 TAUGATE_38:Z net_19996:1 0.2079
3 net_19996:1 net_19996:2 0.2449
4 net_19996:2 net_19996:3 0.0406
5 net_19996:3 net_19996:4 0.0917
6 net_19996:4 inst_3590:A1 0.0078
*END

*D_NET TAUNET_37 0.3723
*CONN
*I inst_12172:ZN O
*I TAUGATE_37:A I
*CAP
1 inst_12172:ZN 0.0264
2 TAUNET_37:1 0.1906
3 TAUGATE_37:A 0.1553
*RES
2 inst_12172:ZN TAUNET_37:1 0.0937
3 TAUNET_37:1 TAUGATE_37:A 0.2944
*END

*D_NET TAUNET_32 0.9828
*CONN
*I inst_4718:ZN O
*I TAUGATE_32:A I
*CAP
1 inst_4718:ZN 0.0209
2 TAUNET_32:1 0.1067
3 TAUNET_32:2 0.4881
4 TAUGATE_32:A 0.3672
*RES
2 inst_4718:ZN TAUNET_32:1 0.4629
3 TAUNET_32:1 TAUNET_32:2 0.1157
4 TAUNET_32:2 TAUGATE_32:A 0.1901
*END

*D_NET net_5544 1.4760
*CONN
*I TAUGATE_10:Z O
*I inst_2144:A I
*CAP
1 TAUGATE_10:Z 0.5008
2 net_5544:1 0.3428
3 net_5544:2 0.2325
4 net_5544:3 0.2733
5 inst_2144:A 0.1266
*RES
2 TAUGATE_10:Z net_5544:1 0.3814
3 net_5544:1 net_5544:2 0.1363
4 net_5544:2 net_5544:3 0.3277
5 net_5544:3 inst_2144:A 0.3144
*END

*D_NET TAUNET_38 1.3785
*CONN
*I inst_18550:ZN O
*I TAUGATE_38:A I
*CAP
1 inst_18550:ZN 0.3676
2 TAUNET_38:1 0.4423
3 TAUNET_38:2 0.1159
4 TAUGATE_38:A 0.4527
*RES
2 inst_18550:ZN TAUNET_38:1 0.1465
3 TAUNET_38:1 TAUNET_38:2 0.1463
4 TAUNET_38:2 TAUGATE_38:A 0.4621
*END

*D_NET net_17760 5.2508
*CONN
*I TAUGATE_17:Z O
*I inst_376:A I
*I inst_186:B I
*I inst_375:A I
*I inst_8245:A1 I
*I inst_8090:A1 I
*I inst_12983:A I
*CAP
1 TAUGATE_17:Z 0.0227
2 net_17760:1 0.4114
3 net_17760:2 0.0715
4 net_17760:3 0.1546
5 inst_8090:A1 0.1861
6 net_17760:4 0.1692
7 inst_186:B 0.4407
8 net_17760:5 0.2874
9 net_17760:6 0.3072
10 net_17760:7 0.2768
11 inst_375:A 0.1679
12 net_17760:8 0.4796
13 net_17760:9 0.3806
14 net_17760:10 0.4946
15 inst_8245:A1 0.4608
16 net_17760:11 0.4103
17 net_17760:12 0.0845
18 inst_376:A 0.1888
19 net_17760:13 0.2069
20 inst_12983:A 0.0491
*RES
2 TAUGATE_17:Z net_17760:1 0.4367
3 net_17760:1 net_17760:2 0.3452
4 net_17760:2 net_17760:3 0.0313
5 net_17760:3 inst_8090:A1 0.1217
6 net_17760:1 net_17760:4 0.4978
7 net_17760:4 inst_186:B 0.2563
8 net_17760:3 net_17760:5 0.2053
9 net_17760:5 net_17760:6 0.2140
10 net_17760:6 net_17760:7 0.3306
11 net_17760:7 inst_375:A 0.1569
12 net_17760:4 net_17760:8 0.4692
13 net_17760:8 net_17760:9 0.4766
14 net_17760:9 net_17760:10 0.0589
15 net_17760:10 inst_8245:A1 0.0962
16 net_17760:5 net_17760:11 0.1436
17 net_17760:11 net_17760:12 0.1762
18 net_17760:12 inst_376:A 0.4748
19 net_17760:2 net_17760:13 0.4137
20 net_17760:13 inst_12983:A 0.3046
*END

*D_NET TAUNET_40 1.0479
*CONN
*I inst_13695:ZN O
*I TAUGATE_40:A I
*CAP
1 inst_13695:ZN 0.2640
2 TAUNET_40:1 0.4110
3 TAUNET_40:2 0.0191
4 TAUGATE_40:A 0.3538
*RES
2 inst_13695:ZN TAUNET_40:1 0.4300
3 TAUNET_40:1 TAUNET_40:2 0.3629
4 TAUNET_40:2 TAUGATE_40:A 0.0787
*END

*D_NET TAUNET_20 2.0675
*CONN
*I inst_567:ZN O
*I TAUGATE_20:A I
*CAP
1 inst_567:ZN 0.2971
2 TAUNET_20:1 0.5010
3 TAUNET_20:2 0.3538
4 TAUNET_20:3 0.4649
5 TAUNET_20:4 0.0482
6 TAUNET_20:5 0.1062
7 TAUGATE_20:A 0.2963
*RES
2 inst_567:ZN TAUNET_20:1 0.4911
3 TAUNET_20:1 TAUNET_20:2 0.2002
4 TAUNET_20:2 TAUNET_20:3 0.2573
5 TAUNET_20:3 TAUNET_20:4 0.3761
6 TAUNET_20:4 TAUNET_20:5 0.0616
7 TAUNET_20:5 TAUGATE_20:A 0.4298
*END

*D_NET net_14516 0.5116
*CONN
*I TAUGATE_25:Z O
*I inst_5811:A3 I
*CAP
1 TAUGATE_25:Z 0.2634
2 net_14516:1 0.0745
3 inst_5811:A3 0.1738
*RES
2 TAUGATE_25:Z net_14516:1 0.4336
3 net_14516:1 inst_5811:A3 0.4556
*END

*D_NET net_7523 1.0764
*CONN
*I TAUGATE_16:Z O
*I inst_1953:B2 I
*CAP
1 TAUGATE_16:Z 0.0036
2 net_7523:1 0.2737
3 net_7523:2 0.3095
4 inst_1953:B2 0.4895
*RES
2 TAUGATE_16:Z net_7523:1 0.4033
3 net_7523:1 net_7523:2 0.2734
4 net_7523:2 inst_1953:B2 0.3461
*END

*D_NET net_6251 1.3424
*CONN
*I TAUGATE_39:Z O
*I inst_20789:B1 I
*CAP
1 TAUGATE_39:Z 0.0418
2 net_6251:1 0.3815
3 net_6251:2 0.1458
4 net_6251:3 0.4915
5 net_6251:4 0.0683
6 inst_20789:B1 0.2135
*RES
2 TAUGATE_39:Z net_6251:1 0.4484
3 net_6251:1 net_6251:2 0.1379
4 net_6251:2 net_6251:3 0.1139
5 net_6251:3 net_6251:4 0.0489
6 net_6251:4 inst_20789:B1 0.0861
*END

*D_NET net_6358 4.0557
*CONN
*I TAUGATE_30:Z O
*I inst_4309:A1 I
*I inst_7160:A2 I
*I inst_11039:A1 I
*I inst_10648:A1 I
*CAP
1 TAUGATE_30:Z 0.4806
2 net_6358:1 0.1114
3 net_6358:2 0.0198
4 net_6358:3 0.2366
5 net_6358:4 0.1100
6 inst_7160:A2 0.2818
7 net_6358:5 0.0096
8 net_6358:6 0.4963
9 inst_4309:A1 0.2377
10 net_6358:7 0.3400
11 net_6358:8 0.2352
12 net_6358:9 0.3112
13 net_6358:10 0.1345
14 inst_11039:A1 0.4134
15 net_6358:11 0.2343
16 net_6358:12 0.1106
17 net_6358:13 0.0283
18 inst_10648:A1 0.2644
*RES
2 TAUGATE_30:Z net_6358:1 0.3290
3 net_6358:1 net_6358:2 0.1592
4 net_6358:2 net_6358:3 0.4236
5 net_6358:3 net_6358:4 0.3328
6 net_6358:4 inst_7160:A2 0.1906
7 net_6358:3 net_6358:5 0.2571
8 net_6358:5 net_6358:6 0.3610
9 net_6358:6 inst_4309:A1 0.0042
10 net_6358:4 net_6358:7 0.0741
11 net_6358:7 net_6358:8 0.4290
12 net_6358:8 net_6358:9 0.4891
13 net_6358:9 net_6358:10 0.0621
14 net_6358:10 inst_11039:A1 0.2122
15 net_6358:3 net_6358:11 0.3395
16 net_6358:11 net_6358:12 0.4160
17 net_6358:12 net_6358:13 0.1311
18 net_6358:13 inst_10648:A1 0.1702
*END

*D_NET TAUNET_14 0.8144
*CONN
*I inst_15574:ZN O
*I TAUGATE_14:A I
*CAP
1 inst_15574:ZN 0.0383
2 TAUNET_14:1 0.2177
3 TAUNET_14:2 0.0520
4 TAUNET_14:3 0.1787
5 TAUGATE_14:A 0.3277
*RES
2 inst_15574:ZN TAUNET_14:1 0.2308
3 TAUNET_14:1 TAUNET_14:2 0.1825
4 TAUNET_14:2 TAUNET_14:3 0.4154
5 TAUNET_14:3 TAUGATE_14:A 0.4205
*END

*D_NET net_21207 3.4439
*CONN
*I TAUGATE_36:Z O
*I inst_510:B I
*I inst_285:B I
*I inst_47:A I
*I inst_284:B I
*I inst_440:A I
*CAP
1 TAUGATE_36:Z 0.3303
2 net_21207:1 0.3450
3 inst_285:B 0.2552
4 net_21207:2 0.3448
5 net_21207:3 0.2539
6 net_21207:4 0.0169
7 inst_510:B 0.2910
8 net_21207:5 0.0258
9 net_21207:6 0.0722
10 net_21207:7 0.0268
11 net_21207:8 0.0274
12 net_21207:9 0.0955
13 inst_47:A 0.0758
14 net_21207:10 0.3531
15 net_21207:11 0.0316
16 net_21207:12 0.1823
17 inst_284:B 0.0755
18 net_21207:13 0.3020
19 inst_440:A 0.3389
*RES
2 TAUGATE_36:Z net_21207:1 0.2397
3 net_21207:1 inst_285:B 0.3943
4 net_21207:1 net_21207:2 0.3418
5 net_21207:2 net_21207:3 0.0277
6 net_21207:3 net_21207:4 0.2232
7 net_21207:4 inst_510:B 0.0700
8 net_21207:4 net_21207:5 0.0730
9 net_21207:5 net_21207:6 0.2996
10 net_21207:6 net_21207:7 0.1500
11 net_21207:7 net_21207:8 0.2720
12 net_21207:8 net_21207:9 0.0605
13 net_21207:9 inst_47:A 0.1555
14 net_21207:9 net_21207:10 0.3163
15 net_21207:10 net_21207:11 0.3515
16 net_21207:11 net_21207:12 0.2983
17 net_21207:12 inst_284:B 0.4269
18 net_21207:1 net_21207:13 0.4000
19 net_21207:13 inst_440:A 0.0188
*END

*D_NET net_2095 1.4883
*CONN
*I TAUGATE_27:Z O
*I inst_1001:D I
*I inst_525:A I
*CAP
1 TAUGATE_27:Z 0.4204
2 net_2095:1 0.2688
3 inst_525:A 0.0936
4 net_2095:2 0.0970
5 net_2095:3 0.2798
6 net_2095:4 0.3150
7 inst_1001:D 0.0137
*RES
2 TAUGATE_27:Z net_2095:1 0.3051
3 net_2095:1 inst_525:A 0.1197
4 net_2095:1 net_2095:2 0.2108
5 net_2095:2 net_2095:3 0.3101
6 net_2095:3 net_2095:4 0.0161
7 net_2095:4 inst_1001:D 0.2047
*END

*D_NET net_9555 3.6937
*CONN
*I TAUGATE_11:Z O
*I inst_2657:A2 I
*I inst_18625:A I
*CAP
1 TAUGATE_11:Z 0.0610
2 net_9555:1 0.2910
3 net_9555:2 0.3768
4 net_9555:3 0.3083
5 net_9555:4 0.1250
6 inst_18625:A 0.3526
7 net_9555:5 0.2418
8 net_9555:6 0.4080
9 net_9555:7 0.3118
10 net_9555:8 0.4981
11 net_9555:9 0.3134
12 inst_2657:A2 0.4059
*RES
2 TAUGATE_11:Z net_9555:1 0.3715
3 net_9555:1 net_9555:2 0.3144
4 net_9555:2 net_9555:3 0.3618
5 net_9555:3 net_9555:4 0.0820
6 net_9555:4 inst_18625:A 0.2174
7 net_9555:4 net_9555:5 0.1396
8 net_9555:5 net_9555:6 0.0910
9 net_9555:6 net_9555:7 0.1278
10 net_9555:7 net_9555:8 0.3093
11 net_9555:8 net_9555:9 0.3342
12 net_9555:9 inst_2657:A2 0.2150
*END

*D_NET net_645 0.5049
*CONN
*I TAUGATE_20:Z O
*I inst_705:D I
*CAP
1 TAUGATE_20:Z 0.1830
2 net_645:1 0.0712
3 net_645:2 0.0044
4 net_645:3 0.1986
5 inst_705:D 0.0476
*RES
2 TAUGATE_20:Z net_645:1 0.0521
3 net_645:1 net_645:2 0.0546
4 net_645:2 net_645:3 0.0043
5 net_645:3 inst_705:D 0.2737
*END

*D_NET net_10888 2.8084
*CONN
*I TAUGATE_57:Z O
*I inst_3728:A2 I
*I inst_7127:A1 I
*CAP
1 TAUGATE_57:Z 0.2677
2 net_10888:1 0.1466
3 net_10888:2 0.2784
4 net_10888:3 0.2008
5 inst_7127:A1 0.3776
6 net_10888:4 0.3567
7 net_10888:5 0.3242
8 net_10888:6 0.2336
9 net_10888:7 0.3863
10 inst_3728:A2 0.2365
*RES
2 TAUGATE_57:Z net_10888:1 0.2937
3 net_10888:1 net_10888:2 0.0093
4 net_10888:2 net_10888:3 0.2822
5 net_10888:3 inst_7127:A1 0.4311
6 net_10888:1 net_10888:4 0.1037
7 net_10888:4 net_10888:5 0.3572
8 net_10888:5 net_10888:6 0.2211
9 net_10888:6 net_10888:7 0.2185
10 net_10888:7 inst_3728:A2 0.2266
*END

*D_NET net_8306 2.5687
*CONN
*I TAUGATE_41:Z O
*I inst_6318:A2 I
*I inst_12154:A1 I
*CAP
1 TAUGATE_41:Z 0.1297
2 net_8306:1 0.2417
3 net_8306:2 0.2444
4 net_8306:3 0.4262
5 net_8306:4 0.3737
6 net_8306:5 0.3015
7 inst_12154:A1 0.1830
8 net_8306:6 0.1111
9 net_8306:7 0.3711
10 net_8306:8 0.0512
11 inst_6318:A2 0.1351
*RES
2 TAUGATE_41:Z net_8306:1 0.3035
3 net_8306:1 net_8306:2 0.4053
4 net_8306:2 net_8306:3 0.0863
5 net_8306:3 net_8306:4 0.2362
6 net_8306:4 net_8306:5 0.1365
7 net_8306:5 inst_12154:A1 0.0277
8 net_8306:5 net_8306:6 0.0984
9 net_8306:6 net_8306:7 0.0368
10 net_8306:7 net_8306:8 0.4376
11 net_8306:8 inst_6318:A2 0.1423
*END

*D_NET TAUNET_49 2.0911
*CONN
*I inst_19314:ZN O
*I TAUGATE_49:A I
*CAP
1 inst_19314:ZN 0.1146
2 TAUNET_49:1 0.4610
3 TAUNET_49:2 0.4832
4 TAUNET_49:3 0.2776
5 TAUNET_49:4 0.3781
6 TAUGATE_49:A 0.3766
*RES
2 inst_19314:ZN TAUNET_49:1 0.0185
3 TAUNET_49:1 TAUNET_49:2 0.3877
4 TAUNET_49:2 TAUNET_49:3 0.1588
5 TAUNET_49:3 TAUNET_49:4 0.3738
6 TAUNET_49:4 TAUGATE_49:A 0.4556
*END

*D_NET net_21057 1.0723
*CONN
*I TAUGATE_52:Z O
*I inst_17989:A I
*CAP
1 TAUGATE_52:Z 0.0020
2 net_21057:1 0.3010
3 net_21057:2 0.2164
4 net_21057:3 0.4372
5 inst_17989:A 0.1158
*RES
2 TAUGATE_52:Z net_21057:1 0.1153
3 net_21057:1 net_21057:2 0.3810
4 net_21057:2 net_21057:3 0.1100
5 net_21057:3 inst_17989:A 0.1662
*END

*D_NET net_3130 1.3952
*CONN
*I TAUGATE_32:Z O
*I inst_19126:A I
*CAP
1 TAUGATE_32:Z 0.2541
2 net_3130:1 0.4625
3 net_3130:2 0.2343
4 net_3130:3 0.0981
5 inst_19126:A 0.3461
*RES
2 TAUGATE_32:Z net_3130:1 0.2382
3 net_3130:1 net_3130:2 0.4109
4 net_3130:2 net_3130:3 0.0945
5 net_3130:3 inst_19126:A 0.2326
*END

*D_NET net_541 2.1933
*CONN
*I TAUGATE_59:Z O
*I inst_934:D I
*I inst_43:B I
*CAP
1 TAUGATE_59:Z 0.2674
2 net_541:1 0.0414
3 net_541:2 0.2455
4 net_541:3 0.1970
5 inst_934:D 0.0138
6 net_541:4 0.4199
7 net_541:5 0.3736
8 net_541:6 0.3306
9 inst_43:B 0.3042
*RES
2 TAUGATE_59:Z net_541:1 0.4527
3 net_541:1 net_541:2 0.3131
4 net_541:2 net_541:3 0.4392
5 net_541:3 inst_934:D 0.4048
6 net_541:3 net_541:4 0.1317
7 net_541:4 net_541:5 0.1481
8 net_541:5 net_541:6 0.2485
9 net_541:6 inst_43:B 0.2201
*END

*D_NET TAUNET_50 0.7087
*CONN
*I inst_19490:ZN O
*I TAUGATE_50:A I
*CAP
1 inst_19490:ZN 0.3013
2 TAUNET_50:1 0.0262
3 TAUGATE_50:A 0.3812
*RES
2 inst_19490:ZN TAUNET_50:1 0.0656
3 TAUNET_50:1 TAUGATE_50:A 0.1550
*END

*D_NET net_10776 1.3180
*CONN
*I TAUGATE_22:Z O
*I inst_2445:C2 I
*CAP
1 TAUGATE_22:Z 0.1418
2 net_10776:1 0.3805
3 net_10776:2 0.2523
4 net_10776:3 0.0497
5 inst_2445:C2 0.4938
*RES
2 TAUGATE_22:Z net_10776:1 0.3913
3 net_10776:1 net_10776:2 0.2131
4 net_10776:2 net_10776:3 0.3201
5 net_10776:3 inst_2445:C2 0.0320
*END

*D_NET TAUNET_23 2.1105
*CONN
*I inst_8439:ZN O
*I TAUGATE_23:A I
*CAP
1 inst_8439:ZN 0.3378
2 TAUNET_23:1 0.2454
3 TAUNET_23:2 0.4527
4 TAUNET_23:3 0.2663
5 TAUNET_23:4 0.3641
6 TAUNET_23:5 0.1740
7 TAUGATE_23:A 0.2701
*RES
2 inst_8439:ZN TAUNET_23:1 0.3351
3 TAUNET_23:1 TAUNET_23:2 0.4105
4 TAUNET_23:2 TAUNET_23:3 0.3004
5 TAUNET_23:3 TAUNET_23:4 0.3665
6 TAUNET_23:4 TAUNET_23:5 0.1341
7 TAUNET_23:5 TAUGATE_23:A 0.0859
*END

*D_NET TAUNET_39 0.5333
*CONN
*I inst_14051:ZN O
*I TAUGATE_39:A I
*CAP
1 inst_14051:ZN 0.3812
2 TAUNET_39:1 0.1227
3 TAUGATE_39:A 0.0294
*RES
2 inst_14051:ZN TAUNET_39:1 0.0059
3 TAUNET_39:1 TAUGATE_39:A 0.3552
*END

*D_NET net_6419 2.1906
*CONN
*I TAUGATE_28:Z O
*I inst_20781:B2 I
*CAP
1 TAUGATE_28:Z 0.1840
2 net_6419:1 0.3573
3 net_6419:2 0.4559
4 net_6419:3 0.3575
5 net_6419:4 0.1715
6 net_6419:5 0.3050
7 inst_20781:B2 0.3594
*RES
2 TAUGATE_28:Z net_6419:1 0.4902
3 net_6419:1 net_6419:2 0.4716
4 net_6419:2 net_6419:3 0.2112
5 net_6419:3 net_6419:4 0.1762
6 net_6419:4 net_6419:5 0.1166
7 net_6419:5 inst_20781:B2 0.1660
*END

*D_NET net_5806 3.4913
*CONN
*I TAUGATE_51:Z O
*I inst_7280:A1 I
*I inst_10675:A2 I
*CAP
1 TAUGATE_51:Z 0.2908
2 net_5806:1 0.3308
3 net_5806:2 0.4080
4 net_5806:3 0.4669
5 net_5806:4 0.1932
6 inst_7280:A1 0.0675
7 net_5806:5 0.4574
8 net_5806:6 0.4683
9 net_5806:7 0.1543
10 net_5806:8 0.4873
11 inst_10675:A2 0.1669
*RES
2 TAUGATE_51:Z net_5806:1 0.0053
3 net_5806:1 net_5806:2 0.1459
4 net_5806:2 net_5806:3 0.0437
5 net_5806:3 net_5806:4 0.4598
6 net_5806:4 inst_7280:A1 0.3838
7 net_5806:2 net_5806:5 0.4800
8 net_5806:5 net_5806:6 0.4518
9 net_5806:6 net_5806:7 0.0570
10 net_5806:7 net_5806:8 0.4909
11 net_5806:8 inst_10675:A2 0.0572
*END

*D_NET TAUNET_51 1.5455
*CONN
*I inst_14919:ZN O
*I TAUGATE_51:A I
*CAP
1 inst_14919:ZN 0.1013
2 TAUNET_51:1 0.4210
3 TAUNET_51:2 0.2594
4 TAUNET_51:3 0.3565
5 TAUGATE_51:A 0.4074
*RES
2 inst_14919:ZN TAUNET_51:1 0.4309
3 TAUNET_51:1 TAUNET_51:2 0.4474
4 TAUNET_51:2 TAUNET_51:3 0.2931
5 TAUNET_51:3 TAUGATE_51:A 0.2848
*END

*D_NET net_575 1.9018
*CONN
*I TAUGATE_12:Z O
*I inst_777:D I
*CAP
1 TAUGATE_12:Z 0.3320
2 net_575:1 0.3663
3 net_575:2 0.1512
4 net_575:3 0.1368
5 net_575:4 0.4493
6 inst_777:D 0.4663
*RES
2 TAUGATE_12:Z net_575:1 0.2866
3 net_575:1 net_575:2 0.1873
4 net_575:2 net_575:3 0.1599
5 net_575:3 net_575:4 0.3589
6 net_575:4 inst_777:D 0.4697
*END

*D_NET net_10475 4.6715
*CONN
*I TAUGATE_55:Z O
*I inst_2554:B I
*I inst_5155:A2 I
*I inst_6383:A3 I
*I inst_10007:A2 I
*CAP
1 TAUGATE_55:Z 0.0401
2 net_10475:1 0.1883
3 net_10475:2 0.3075
4 net_10475:3 0.0604
5 inst_10007:A2 0.3908
6 net_10475:4 0.3010
7 net_10475:5 0.1515
8 net_10475:6 0.0492
9 inst_5155:A2 0.2707
10 net_10475:7 0.3648
11 net_10475:8 0.4404
12 net_10475:9 0.3187
13 net_10475:10 0.4272
14 net_10475:11 0.0224
15 inst_6383:A3 0.4026
16 net_10475:12 0.1530
17 net_10475:13 0.2582
18 net_10475:14 0.4484
19 inst_2554:B 0.0762
*RES
2 TAUGATE_55:Z net_10475:1 0.2921
3 net_10475:1 net_10475:2 0.4162
4 net_10475:2 net_10475:3 0.1285
5 net_10475:3 inst_10007:A2 0.0491
6 net_10475:3 net_10475:4 0.0711
7 net_10475:4 net_10475:5 0.2365
8 net_10475:5 net_10475:6 0.0021
9 net_10475:6 inst_5155:A2 0.2080
10 net_10475:5 net_10475:7 0.2784
11 net_10475:7 net_10475:8 0.1803
12 net_10475:8 net_10475:9 0.0882
13 net_10475:9 net_10475:10 0.2924
14 net_10475:10 net_10475:11 0.4780
15 net_10475:11 inst_6383:A3 0.3510
16 net_10475:3 net_10475:12 0.1986
17 net_10475:12 net_10475:13 0.3922
18 net_10475:13 net_10475:14 0.3950
19 net_10475:14 inst_2554:B 0.2666
*END

*D_NET TAUNET_19 2.0823
*CONN
*I inst_18279:ZN O
*I TAUGATE_19:A I
*CAP
1 inst_18279:ZN 0.4671
2 TAUNET_19:1 0.3936
3 TAUNET_19:2 0.4880
4 TAUNET_19:3 0.4169
5 TAUGATE_19:A 0.3167
*RES
2 inst_18279:ZN TAUNET_19:1 0.3376
3 TAUNET_19:1 TAUNET_19:2 0.1073
4 TAUNET_19:2 TAUNET_19:3 0.3579
5 TAUNET_19:3 TAUGATE_19:A 0.1300
*END

*D_NET TAUNET_34 0.8732
*CONN
*I inst_16882:ZN O
*I TAUGATE_34:A I
*CAP
1 inst_16882:ZN 0.2362
2 TAUNET_34:1 0.1996
3 TAUNET_34:2 0.3123
4 TAUGATE_34:A 0.1251
*RES
2 inst_16882:ZN TAUNET_34:1 0.0048
3 TAUNET_34:1 TAUNET_34:2 0.3126
4 TAUNET_34:2 TAUGATE_34:A 0.0195
*END

*D_NET TAUNET_54 1.8169
*CONN
*I inst_8796:ZN O
*I TAUGATE_54:A I
*CAP
1 inst_8796:ZN 0.3700
2 TAUNET_54:1 0.3466
3 TAUNET_54:2 0.4948
4 TAUNET_54:3 0.4038
5 TAUNET_54:4 0.1954
6 TAUGATE_54:A 0.0063
*RES
2 inst_8796:ZN TAUNET_54:1 0.4904
3 TAUNET_54:1 TAUNET_54:2 0.0915
4 TAUNET_54:2 TAUNET_54:3 0.4619
5 TAUNET_54:3 TAUNET_54:4 0.1065
6 TAUNET_54:4 TAUGATE_54:A 0.1990
*END

*D_NET net_19626 0.5577
*CONN
*I TAUGATE_31:Z O
*I inst_1512:B2 I
*CAP
1 TAUGATE_31:Z 0.0690
2 net_19626:1 0.2934
3 net_19626:2 0.0661
4 net_19626:3 0.0281
5 inst_1512:B2 0.1011
*RES
2 TAUGATE_31:Z net_19626:1 0.2539
3 net_19626:1 net_19626:2 0.0765
4 net_19626:2 net_19626:3 0.1980
5 net_19626:3 inst_1512:B2 0.3226
*END

*D_NET net_2654 2.4686
*CONN
*I TAUGATE_49:Z O
*I inst_6773:A1 I
*CAP
1 TAUGATE_49:Z 0.2766
2 net_2654:1 0.4267
3 net_2654:2 0.4596
4 net_2654:3 0.3295
5 net_2654:4 0.4724
6 net_2654:5 0.4631
7 inst_6773:A1 0.0407
*RES
2 TAUGATE_49:Z net_2654:1 0.4130
3 net_2654:1 net_2654:2 0.3462
4 net_2654:2 net_2654:3 0.0714
5 net_2654:3 net_2654:4 0.2110
6 net_2654:4 net_2654:5 0.2588
7 net_2654:5 inst_6773:A1 0.0339
*END

*D_NET net_20266 0.9948
*CONN
*I TAUGATE_46:Z O
*I inst_6333:A1 I
*CAP
1 TAUGATE_46:Z 0.4874
2 net_20266:1 0.2489
3 inst_6333:A1 0.2584
*RES
2 TAUGATE_46:Z net_20266:1 0.0346
3 net_20266:1 inst_6333:A1 0.4333
*END

*D_NET TAUNET_44 1.2318
*CONN
*I inst_14005:ZN O
*I TAUGATE_44:A I
*CAP
1 inst_14005:ZN 0.3416
2 TAUNET_44:1 0.1540
3 TAUNET_44:2 0.0325
4 TAUNET_44:3 0.0924
5 TAUNET_44:4 0.1850
6 TAUNET_44:5 0.1516
7 TAUGATE_44:A 0.2746
*RES
2 inst_14005:ZN TAUNET_44:1 0.4228
3 TAUNET_44:1 TAUNET_44:2 0.1417
4 TAUNET_44:2 TAUNET_44:3 0.3754
5 TAUNET_44:3 TAUNET_44:4 0.2016
6 TAUNET_44:4 TAUNET_44:5 0.0068
7 TAUNET_44:5 TAUGATE_44:A 0.2001
*END

*D_NET TAUNET_43 1.0932
*CONN
*I inst_7657:ZN O
*I TAUGATE_43:A I
*CAP
1 inst_7657:ZN 0.4926
2 TAUNET_43:1 0.3810
3 TAUGATE_43:A 0.2195
*RES
2 inst_7657:ZN TAUNET_43:1 0.2042
3 TAUNET_43:1 TAUGATE_43:A 0.2030
*END

*D_NET net_1519 1.9497
*CONN
*I TAUGATE_34:Z O
*I inst_11823:A2 I
*I inst_11921:A1 I
*CAP
1 TAUGATE_34:Z 0.4413
2 net_1519:1 0.4042
3 net_1519:2 0.0451
4 inst_11921:A1 0.2391
5 net_1519:3 0.4797
6 net_1519:4 0.0551
7 net_1519:5 0.1877
8 inst_11823:A2 0.0973
*RES
2 TAUGATE_34:Z net_1519:1 0.0321
3 net_1519:1 net_1519:2 0.4146
4 net_1519:2 inst_11921:A1 0.0857
5 net_1519:2 net_1519:3 0.4235
6 net_1519:3 net_1519:4 0.1903
7 net_1519:4 net_1519:5 0.2143
8 net_1519:5 inst_11823:A2 0.0701
*END

*D_NET TAUNET_56 1.7676
*CONN
*I inst_16839:ZN O
*I TAUGATE_56:A I
*CAP
1 inst_16839:ZN 0.4634
2 TAUNET_56:1 0.2766
3 TAUNET_56:2 0.3086
4 TAUNET_56:3 0.2353
5 TAUGATE_56:A 0.4838
*RES
2 inst_16839:ZN TAUNET_56:1 0.0722
3 TAUNET_56:1 TAUNET_56:2 0.3539
4 TAUNET_56:2 TAUNET_56:3 0.3446
5 TAUNET_56:3 TAUGATE_56:A 0.0192
*END

*D_NET TAUNET_55 1.5540
*CONN
*I inst_7299:ZN O
*I TAUGATE_55:A I
*CAP
1 inst_7299:ZN 0.4054
2 TAUNET_55:1 0.4419
3 TAUNET_55:2 0.1561
4 TAUNET_55:3 0.1347
5 TAUNET_55:4 0.0224
6 TAUGATE_55:A 0.3933
*RES
2 inst_7299:ZN TAUNET_55:1 0.2244
3 TAUNET_55:1 TAUNET_55:2 0.4154
4 TAUNET_55:2 TAUNET_55:3 0.1374
5 TAUNET_55:3 TAUNET_55:4 0.1713
6 TAUNET_55:4 TAUGATE_55:A 0.2153
*END

*D_NET TAUNET_11 1.6905
*CONN
*I inst_4026:ZN O