*SPEF "IEEE 1481-1998"
*DESIGN "changes"
*DATE "Tue Dec 02 18:56:44 2014"
*VENDOR "TAU 2015 Contest"
*PROGRAM "Benchmark Parasitic Generator"
*VERSION "0.0"
*DESIGN_FLOW "NETLIST_TYPE_VERILOG"
*DIVIDER /
*DELIMITER :
*BUS_DELIMITER [ ]
*T_UNIT 1 PS
*C_UNIT 1 FF
*R_UNIT 1 KOHM
*L_UNIT 1 UH

*D_NET net_20239 3.0173
*CONN
*I TAUGATE_3994:Z O
*I inst_5492:A3 I
*I inst_10307:A2 I
*CAP
1 TAUGATE_3994:Z 0.2611
2 net_20239:1 0.4098
3 net_20239:2 0.5009
4 net_20239:3 0.2843
5 inst_5492:A3 0.2878
6 net_20239:4 0.4685
7 net_20239:5 0.3070
8 net_20239:6 0.3583
9 inst_10307:A2 0.1395
*RES
2 TAUGATE_3994:Z net_20239:1 0.1659
3 net_20239:1 net_20239:2 0.2742
4 net_20239:2 net_20239:3 0.3494
5 net_20239:3 inst_5492:A3 0.1485
6 net_20239:3 net_20239:4 0.0646
7 net_20239:4 net_20239:5 0.0794
8 net_20239:5 net_20239:6 0.2161
9 net_20239:6 inst_10307:A2 0.1614
*END

*D_NET TAUNET_929 4.7351
*CONN
*I inst_16883:ZN O
*I TAUGATE_929:A I
*I inst_4933:A2 I
*I inst_16591:A I
*CAP
1 inst_16883:ZN 0.3755
2 TAUNET_929:1 0.4559
3 TAUNET_929:2 0.4050
4 TAUNET_929:3 0.0154
5 TAUNET_929:4 0.1670
6 TAUNET_929:5 0.1555
7 inst_4933:A2 0.2440
8 TAUNET_929:6 0.0740
9 TAUNET_929:7 0.4871
10 TAUNET_929:8 0.4951
11 TAUNET_929:9 0.4125
12 TAUGATE_929:A 0.0565
13 TAUNET_929:10 0.4708
14 TAUNET_929:11 0.3056
15 TAUNET_929:12 0.3464
16 TAUNET_929:13 0.0305
17 inst_16591:A 0.2383
*RES
2 inst_16883:ZN TAUNET_929:1 0.0332
3 TAUNET_929:1 TAUNET_929:2 0.0406
4 TAUNET_929:2 TAUNET_929:3 0.2732
5 TAUNET_929:3 TAUNET_929:4 0.0073
6 TAUNET_929:4 TAUNET_929:5 0.1308
7 TAUNET_929:5 inst_4933:A2 0.1374
8 TAUNET_929:4 TAUNET_929:6 0.1285
9 TAUNET_929:6 TAUNET_929:7 0.0292
10 TAUNET_929:7 TAUNET_929:8 0.2926
11 TAUNET_929:8 TAUNET_929:9 0.4507
12 TAUNET_929:9 TAUGATE_929:A 0.3356
13 TAUNET_929:8 TAUNET_929:10 0.4020
14 TAUNET_929:10 TAUNET_929:11 0.2529
15 TAUNET_929:11 TAUNET_929:12 0.2665
16 TAUNET_929:12 TAUNET_929:13 0.4354
17 TAUNET_929:13 inst_16591:A 0.1977
*END

*D_NET TAUNET_3431 3.5531
*CONN
*I TAUGATE_4658:Z O
*I TAUGATE_3431:A I
*I inst_20016:A2 I
*I inst_13753:A I
*CAP
1 TAUGATE_4658:Z 0.3276
2 TAUNET_3431:1 0.3292
3 TAUNET_3431:2 0.0716
4 TAUNET_3431:3 0.2236
5 TAUNET_3431:4 0.1922
6 TAUGATE_3431:A 0.2805
7 TAUNET_3431:5 0.3943
8 TAUNET_3431:6 0.2211
9 TAUNET_3431:7 0.1955
10 inst_20016:A2 0.1868
11 TAUNET_3431:8 0.4792
12 TAUNET_3431:9 0.1808
13 TAUNET_3431:10 0.0717
14 inst_13753:A 0.3990
*RES
2 TAUGATE_4658:Z TAUNET_3431:1 0.1322
3 TAUNET_3431:1 TAUNET_3431:2 0.1905
4 TAUNET_3431:2 TAUNET_3431:3 0.4017
5 TAUNET_3431:3 TAUNET_3431:4 0.4680
6 TAUNET_3431:4 TAUGATE_3431:A 0.2976
7 TAUNET_3431:2 TAUNET_3431:5 0.4889
8 TAUNET_3431:5 TAUNET_3431:6 0.0703
9 TAUNET_3431:6 TAUNET_3431:7 0.3298
10 TAUNET_3431:7 inst_20016:A2 0.4131
11 TAUNET_3431:5 TAUNET_3431:8 0.4035
12 TAUNET_3431:8 TAUNET_3431:9 0.0219
13 TAUNET_3431:9 TAUNET_3431:10 0.0830
14 TAUNET_3431:10 inst_13753:A 0.4539
*END

*D_NET net_12969 2.1062
*CONN
*I inst_6266:ZN O
*I inst_8983:A2 I
*CAP
1 inst_6266:ZN 0.3196
2 net_12969:1 0.3591
3 net_12969:2 0.2780
4 net_12969:3 0.2022
5 net_12969:4 0.1593
6 net_12969:5 0.4382
7 inst_8983:A2 0.3498
*RES
2 inst_6266:ZN net_12969:1 0.4055
3 net_12969:1 net_12969:2 0.4519
4 net_12969:2 net_12969:3 0.4658
5 net_12969:3 net_12969:4 0.3690
6 net_12969:4 net_12969:5 0.4019
7 net_12969:5 inst_8983:A2 0.0632
*END

*D_NET TAUNET_1112 2.0111
*CONN
*I inst_11690:ZN O
*I TAUGATE_1112:A I
*CAP
1 inst_11690:ZN 0.4700
2 TAUNET_1112:1 0.3545
3 TAUNET_1112:2 0.1033
4 TAUNET_1112:3 0.4316
5 TAUNET_1112:4 0.1782
6 TAUGATE_1112:A 0.4734
*RES
2 inst_11690:ZN TAUNET_1112:1 0.0376
3 TAUNET_1112:1 TAUNET_1112:2 0.0972
4 TAUNET_1112:2 TAUNET_1112:3 0.3594
5 TAUNET_1112:3 TAUNET_1112:4 0.0525
6 TAUNET_1112:4 TAUGATE_1112:A 0.3248
*END

