*SPEF "IEEE 1481-1998"
*DESIGN "changes"
*DATE "Tue Dec 02 18:56:45 2014"
*VENDOR "TAU 2015 Contest"
*PROGRAM "Benchmark Parasitic Generator"
*VERSION "0.0"
*DESIGN_FLOW "NETLIST_TYPE_VERILOG"
*DIVIDER /
*DELIMITER :
*BUS_DELIMITER [ ]
*T_UNIT 1 PS
*C_UNIT 1 FF
*R_UNIT 1 KOHM
*L_UNIT 1 UH

*D_NET net_8190 9.0400
*CONN
*I inst_12327:ZN O
*I inst_10995:A1 I
*I inst_17115:A I
*I inst_10790:A1 I
*I inst_10556:A1 I
*I inst_2915:A2 I
*I inst_10738:A1 I
*I inst_10792:A1 I
*I inst_1306:B1 I
*CAP
1 inst_12327:ZN 0.2611
2 net_8190:1 0.4098
3 net_8190:2 0.5009
4 net_8190:3 0.2843
5 inst_10556:A1 0.2878
6 net_8190:4 0.4685
7 net_8190:5 0.3070
8 net_8190:6 0.3583
9 inst_17115:A 0.1395
10 net_8190:7 0.4644
11 net_8190:8 0.4559
12 net_8190:9 0.4050
13 net_8190:10 0.0154
14 inst_10790:A1 0.1670
15 net_8190:11 0.2909
16 net_8190:12 0.3706
17 inst_10995:A1 0.0740
18 net_8190:13 0.0292
19 net_8190:14 0.2926
20 inst_2915:A2 0.4507
21 net_8190:15 0.3464
22 net_8190:16 0.0305
23 net_8190:17 0.2383
24 net_8190:18 0.4020
25 inst_10738:A1 0.2529
26 net_8190:19 0.1922
27 net_8190:20 0.2805
28 net_8190:21 0.1322
29 inst_10792:A1 0.1905
30 net_8190:22 0.1955
31 net_8190:23 0.1868
32 net_8190:24 0.4889
33 inst_1306:B1 0.0703
*RES
2 inst_12327:ZN net_8190:1 0.1659
3 net_8190:1 net_8190:2 0.2742
4 net_8190:2 net_8190:3 0.3494
5 net_8190:3 inst_10556:A1 0.1485
6 net_8190:3 net_8190:4 0.0646
7 net_8190:4 net_8190:5 0.0794
8 net_8190:5 net_8190:6 0.2161
9 net_8190:6 inst_17115:A 0.1614
10 net_8190:4 net_8190:7 0.1555
11 net_8190:7 net_8190:8 0.2440
12 net_8190:8 net_8190:9 0.0332
13 net_8190:9 net_8190:10 0.0406
14 net_8190:10 inst_10790:A1 0.2732
15 net_8190:3 net_8190:11 0.4871
16 net_8190:11 net_8190:12 0.4951
17 net_8190:12 inst_10995:A1 0.4125
18 net_8190:1 net_8190:13 0.3356
19 net_8190:13 net_8190:14 0.3995
20 net_8190:14 inst_2915:A2 0.3845
21 net_8190:14 net_8190:15 0.2665
22 net_8190:15 net_8190:16 0.4354
23 net_8190:16 net_8190:17 0.1977
24 net_8190:17 net_8190:18 0.0788
25 net_8190:18 inst_10738:A1 0.3276
26 net_8190:3 net_8190:19 0.4017
27 net_8190:19 net_8190:20 0.4680
28 net_8190:20 net_8190:21 0.2976
29 net_8190:21 inst_10792:A1 0.2331
30 net_8190:17 net_8190:22 0.3298
31 net_8190:22 net_8190:23 0.4131
32 net_8190:23 net_8190:24 0.3310
33 net_8190:24 inst_1306:B1 0.2621
*END

*D_NET net_1354 7.0993
*CONN
*I inst_17769:ZN O
*I inst_5003:A2 I
*I inst_4981:A2 I
*I inst_19528:A I
*I inst_7608:A1 I
*I inst_7597:A2 I
*CAP
1 inst_17769:ZN 0.1808
2 net_1354:1 0.3990
3 inst_7597:A2 0.4035
4 net_1354:2 0.3591
5 net_1354:3 0.2780
6 net_1354:4 0.2022
7 net_1354:5 0.1593
8 net_1354:6 0.4382
9 inst_4981:A2 0.3498
10 net_1354:7 0.3789
11 net_1354:8 0.3545
12 net_1354:9 0.1033
13 net_1354:10 0.4316
14 net_1354:11 0.1782
15 inst_19528:A 0.4734
16 net_1354:12 0.2434
17 net_1354:13 0.3726
18 net_1354:14 0.2980
19 net_1354:15 0.2454
20 inst_7608:A1 0.4670
21 net_1354:16 0.3699
22 inst_5003:A2 0.4131
*RES
2 inst_17769:ZN net_1354:1 0.0219
3 net_1354:1 inst_7597:A2 0.0830
4 net_1354:1 net_1354:2 0.4055
5 net_1354:2 net_1354:3 0.4519
6 net_1354:3 net_1354:4 0.4658
7 net_1354:4 net_1354:5 0.3690
8 net_1354:5 net_1354:6 0.4019
9 net_1354:6 inst_4981:A2 0.0632
10 net_1354:3 net_1354:7 0.0376
11 net_1354:7 net_1354:8 0.0972
12 net_1354:8 net_1354:9 0.3594
13 net_1354:9 net_1354:10 0.0525
14 net_1354:10 net_1354:11 0.3248
15 net_1354:11 inst_19528:A 0.2597
16 net_1354:2 net_1354:12 0.1921
17 net_1354:12 net_1354:13 0.1376
18 net_1354:13 net_1354:14 0.4443
19 net_1354:14 net_1354:15 0.1288
20 net_1354:15 inst_7608:A1 0.3022
21 net_1354:4 net_1354:16 0.4004
22 net_1354:16 inst_5003:A2 0.4814
*END

*D_NET net_17833 0.7257
*CONN
*I inst_1254:ZN O
*I inst_19816:D I
*CAP
1 inst_1254:ZN 0.3915
2 net_17833:1 0.3089
3 inst_19816:D 0.0253
*RES
2 inst_1254:ZN net_17833:1 0.3105
3 net_17833:1 inst_19816:D 0.1881
*END

*D_NET net_4807 2.8280
*CONN
*I inst_4889:ZN O
*I inst_14983:A I
*I inst_4441:A2 I
*I inst_11013:A1 I
*CAP
1 inst_4889:ZN 0.1592
2 net_4807:1 0.2761
3 net_4807:2 0.3643
4 net_4807:3 0.2288
5 net_4807:4 0.0666
6 inst_4441:A2 0.3854
7 net_4807:5 0.4921
8 net_4807:6 0.1648
9 net_4807:7 0.1855
10 inst_14983:A 0.0112
11 net_4807:8 0.3290
12 net_4807:9 0.1620
13 inst_11013:A1 0.0029
*RES
2 inst_4889:ZN net_4807:1 0.3580
3 net_4807:1 net_4807:2 0.3774
4 net_4807:2 net_4807:3 0.2731
5 net_4807:3 net_4807:4 0.1525
6 net_4807:4 inst_4441:A2 0.0518
7 net_4807:3 net_4807:5 0.3530
8 net_4807:5 net_4807:6 0.1128
9 net_4807:6 net_4807:7 0.2239
10 net_4807:7 inst_14983:A 0.0917
11 net_4807:7 net_4807:8 0.2883
12 net_4807:8 net_4807:9 0.1903
13 net_4807:9 inst_11013:A1 0.4381
*END

*D_NET net_4867 4.3372
*CONN
*I inst_14802:ZN O
*I inst_10311:A2 I
*I inst_14430:A I
*I inst_20787:B1 I
*I inst_14432:A I
*I inst_14431:A I
*CAP
1 inst_14802:ZN 0.0801
2 net_4867:1 0.1891
3 net_4867:2 0.0464
4 inst_14432:A 0.0364
5 net_4867:3 0.4787
6 net_4867:4 0.1076
7 inst_14430:A 0.4606
8 net_4867:5 0.3736
9 inst_20787:B1 0.0395
10 net_4867:6 0.3513
11 net_4867:7 0.1165
12 net_4867:8 0.0986
13 net_4867:9 0.2243
14 inst_10311:A2 0.1286
15 net_4867:10 0.1869
16 net_4867:11 0.4974
17 net_4867:12 0.3047
18 net_4867:13 0.1200
19 inst_14431:A 0.4969
*RES
2 inst_14802:ZN net_4867:1 0.0279
3 net_4867:1 net_4867:2 0.4104
4 net_4867:2 inst_14432:A 0.0649
5 net_4867:1 net_4867:3 0.3388
6 net_4867:3 net_4867:4 0.4657
7 net_4867:4 inst_14430:A 0.3595
8 net_4867:1 net_4867:5 0.3644
9 net_4867:5 inst_20787:B1 0.0829
10 net_4867:5 net_4867:6 0.4269
11 net_4867:6 net_4867:7 0.2482
12 net_4867:7 net_4867:8 0.2195
13 net_4867:8 net_4867:9 0.1533
14 net_4867:9 inst_10311:A2 0.4091
15 net_4867:5 net_4867:10 0.1210
16 net_4867:10 net_4867:11 0.1733
17 net_4867:11 net_4867:12 0.1014
18 net_4867:12 net_4867:13 0.0283
19 net_4867:13 inst_14431:A 0.2763
*END

*D_NET TAUNET_1824 12.1440
*CONN
*I TAUGATE_2016:Z O
*I TAUGATE_1824:A I
*I inst_6341:A3 I
*I inst_20079:C1 I
*I inst_15824:A I
*I inst_20428:A I
*I inst_20431:A I
*I inst_20290:B1 I
*I inst_3461:A1 I
*I inst_1785:A I
*I inst_16745:A I
*I inst_1826:A I
*I inst_20116:B1 I
*CAP
1 TAUGATE_2016:Z 0.3177
2 TAUNET_1824:1 0.3390
3 TAUNET_1824:2 0.2046
4 TAUNET_1824:3 0.3404
5 inst_3461:A1 0.1317
6 TAUNET_1824:4 0.1253
7 inst_6341:A3 0.2716
8 TAUNET_1824:5 0.2135
9 TAUNET_1824:6 0.0419
10 TAUNET_1824:7 0.2773
11 inst_20079:C1 0.0903
12 TAUNET_1824:8 0.2443
13 TAUNET_1824:9 0.2458
14 TAUNET_1824:10 0.3734
15 TAUNET_1824:11 0.1567
16 TAUNET_1824:12 0.1247
17 inst_15824:A 0.2439
18 TAUNET_1824:13 0.4026
19 inst_20428:A 0.4684
20 TAUNET_1824:14 0.4278
21 TAUNET_1824:15 0.3875
22 TAUNET_1824:16 0.4796
23 inst_20431:A 0.3740
24 TAUNET_1824:17 0.4947
25 TAUNET_1824:18 0.3666
26 inst_20290:B1 0.2854
27 TAUNET_1824:19 0.2044
28 TAUNET_1824:20 0.1531
29 TAUNET_1824:21 0.3886
30 TAUNET_1824:22 0.2618
31 TAUGATE_1824:A 0.2468
32 TAUNET_1824:23 0.0199
33 TAUNET_1824:24 0.4145
34 TAUNET_1824:25 0.1459
35 inst_1785:A 0.1130
36 TAUNET_1824:26 0.4826
37 TAUNET_1824:27 0.1138
38 TAUNET_1824:28 0.4033
39 inst_16745:A 0.3663
40 TAUNET_1824:29 0.0863
41 inst_1826:A 0.3102
42 TAUNET_1824:30 0.4441
43 TAUNET_1824:31 0.4218
44 TAUNET_1824:32 0.0848
45 TAUNET_1824:33 0.0266
46 inst_20116:B1 0.0274
*RES
2 TAUGATE_2016:Z TAUNET_1824:1 0.3617
3 TAUNET_1824:1 TAUNET_1824:2 0.0856
4 TAUNET_1824:2 TAUNET_1824:3 0.3629
5 TAUNET_1824:3 inst_3461:A1 0.2821
6 TAUNET_1824:3 TAUNET_1824:4 0.3735
7 TAUNET_1824:4 inst_6341:A3 0.1079
8 TAUNET_1824:4 TAUNET_1824:5 0.0485
9 TAUNET_1824:5 TAUNET_1824:6 0.4602
10 TAUNET_1824:6 TAUNET_1824:7 0.4262
11 TAUNET_1824:7 inst_20079:C1 0.2009
12 TAUNET_1824:6 TAUNET_1824:8 0.2588
13 TAUNET_1824:8 TAUNET_1824:9 0.4474
14 TAUNET_1824:9 TAUNET_1824:10 0.3528
15 TAUNET_1824:10 TAUNET_1824:11 0.0472
16 TAUNET_1824:11 TAUNET_1824:12 0.4436
17 TAUNET_1824:12 inst_15824:A 0.1981
18 TAUNET_1824:8 TAUNET_1824:13 0.2490
19 TAUNET_1824:13 inst_20428:A 0.0579
20 TAUNET_1824:1 TAUNET_1824:14 0.1554
21 TAUNET_1824:14 TAUNET_1824:15 0.0209
22 TAUNET_1824:15 TAUNET_1824:16 0.4380
23 TAUNET_1824:16 inst_20431:A 0.4130
24 TAUNET_1824:7 TAUNET_1824:17 0.4464
25 TAUNET_1824:17 TAUNET_1824:18 0.2438
26 TAUNET_1824:18 inst_20290:B1 0.2969
27 TAUNET_1824:8 TAUNET_1824:19 0.4002
28 TAUNET_1824:19 TAUNET_1824:20 0.3652
29 TAUNET_1824:20 TAUNET_1824:21 0.1857
30 TAUNET_1824:21 TAUNET_1824:22 0.0562
31 TAUNET_1824:22 TAUGATE_1824:A 0.0882
32 TAUNET_1824:20 TAUNET_1824:23 0.1026
33 TAUNET_1824:23 TAUNET_1824:24 0.1939
34 TAUNET_1824:24 TAUNET_1824:25 0.1095
35 TAUNET_1824:25 inst_1785:A 0.0212
36 TAUNET_1824:7 TAUNET_1824:26 0.2540
37 TAUNET_1824:26 TAUNET_1824:27 0.0526
38 TAUNET_1824:27 TAUNET_1824:28 0.2388
39 TAUNET_1824:28 inst_16745:A 0.1787
40 TAUNET_1824:21 TAUNET_1824:29 0.1239
41 TAUNET_1824:29 inst_1826:A 0.2473
42 TAUNET_1824:14 TAUNET_1824:30 0.4218
43 TAUNET_1824:30 TAUNET_1824:31 0.2061
44 TAUNET_1824:31 TAUNET_1824:32 0.2110
45 TAUNET_1824:32 TAUNET_1824:33 0.4583
46 TAUNET_1824:33 inst_20116:B1 0.3985
*END

*D_NET net_20522 1.9898
*CONN
*I inst_19682:ZN O
*I inst_7834:A1 I
*CAP
1 inst_19682:ZN 0.0725
2 net_20522:1 0.3124
3 net_20522:2 0.3685
4 net_20522:3 0.4317
5 net_20522:4 0.1801
6 net_20522:5 0.2826
7 inst_7834:A1 0.3420
*RES
2 inst_19682:ZN net_20522:1 0.0965
3 net_20522:1 net_20522:2 0.2555
4 net_20522:2 net_20522:3 0.1304
5 net_20522:3 net_20522:4 0.3675
6 net_20522:4 net_20522:5 0.4634
7 net_20522:5 inst_7834:A1 0.2869
*END

*D_NET net_782 1.5530
*CONN
*I inst_12326:ZN O
*I inst_7586:A1 I
*I inst_7545:A1 I
*I inst_16968:A I
*CAP
1 inst_12326:ZN 0.1182
2 net_782:1 0.0608
3 inst_7586:A1 0.3721
4 net_782:2 0.0264
5 net_782:3 0.2502
6 inst_7545:A1 0.2506
7 net_782:4 0.1704
8 net_782:5 0.2303
9 net_782:6 0.0121
10 inst_16968:A 0.0620
*RES
2 inst_12326:ZN net_782:1 0.4648
3 net_782:1 inst_7586:A1 0.2376
4 net_782:1 net_782:2 0.4486
5 net_782:2 net_782:3 0.0641
6 net_782:3 inst_7545:A1 0.0138
7 net_782:1 net_782:4 0.0267
8 net_782:4 net_782:5 0.1278
9 net_782:5 net_782:6 0.1079
10 net_782:6 inst_16968:A 0.3621
*END

*D_NET net_12586 2.0149
*CONN
*I inst_3596:ZN O
*I inst_20477:B1 I
*CAP
1 inst_3596:ZN 0.3490
2 net_12586:1 0.3195
3 net_12586:2 0.4748
4 net_12586:3 0.2505
5 net_12586:4 0.2036
6 net_12586:5 0.3990
7 inst_20477:B1 0.0185
*RES
2 inst_3596:ZN net_12586:1 0.3777
3 net_12586:1 net_12586:2 0.2437
4 net_12586:2 net_12586:3 0.3641
5 net_12586:3 net_12586:4 0.1411
6 net_12586:4 net_12586:5 0.2452
7 net_12586:5 inst_20477:B1 0.2723
*END

*D_NET net_17027 0.3445
*CONN
*I inst_14:Z O
*I inst_19874:D I
*CAP
1 inst_14:Z 0.2449
2 net_17027:1 0.0917
3 inst_19874:D 0.0078
*RES
2 inst_14:Z net_17027:1 0.0227
3 net_17027:1 inst_19874:D 0.0264
*END

*D_NET net_15869 9.4401
*CONN
*I inst_15356:ZN O
*I inst_14344:A I
*I inst_2402:C1 I
*I inst_20084:B1 I
*I inst_4125:A1 I
*I inst_3444:A1 I
*I inst_14635:A I
*I inst_2126:A I
*I inst_1749:B1 I
*CAP
1 inst_15356:ZN 0.1906
2 net_15869:1 0.0937
3 net_15869:2 0.2944
4 inst_14344:A 0.3987
5 net_15869:3 0.1157
6 net_15869:4 0.1901
7 net_15869:5 0.2138
8 net_15869:6 0.5008
9 net_15869:7 0.2979
10 inst_2402:C1 0.3428
11 net_15869:8 0.3676
12 net_15869:9 0.1603
13 net_15869:10 0.4423
14 net_15869:11 0.1159
15 net_15869:12 0.4527
16 inst_20084:B1 0.1465
17 net_15869:13 0.1861
18 net_15869:14 0.4367
19 inst_4125:A1 0.3452
20 net_15869:15 0.1692
21 inst_3444:A1 0.4407
22 net_15869:16 0.2874
23 net_15869:17 0.3072
24 net_15869:18 0.2768
25 inst_14635:A 0.1679
26 net_15869:19 0.4796
27 net_15869:20 0.3806
28 net_15869:21 0.4946
29 inst_2126:A 0.4608
30 net_15869:22 0.4103
31 net_15869:23 0.0845
32 inst_1749:B1 0.1888
*RES
2 inst_15356:ZN net_15869:1 0.0209
3 net_15869:1 net_15869:2 0.1182
4 net_15869:2 inst_14344:A 0.1067
5 net_15869:2 net_15869:3 0.2325
6 net_15869:3 net_15869:4 0.2733
7 net_15869:4 net_15869:5 0.1266
8 net_15869:5 net_15869:6 0.3814
9 net_15869:6 net_15869:7 0.1363
10 net_15869:7 inst_2402:C1 0.3277
11 net_15869:5 net_15869:8 0.1463
12 net_15869:8 net_15869:9 0.4621
13 net_15869:9 net_15869:10 0.4065
14 net_15869:10 net_15869:11 0.0227
15 net_15869:11 net_15869:12 0.2236
16 net_15869:12 inst_20084:B1 0.4114
17 net_15869:2 net_15869:13 0.0313
18 net_15869:13 net_15869:14 0.1217
19 net_15869:14 inst_4125:A1 0.0111
20 net_15869:3 net_15869:15 0.4978
21 net_15869:15 inst_3444:A1 0.2563
22 net_15869:8 net_15869:16 0.2053
23 net_15869:16 net_15869:17 0.2140
24 net_15869:17 net_15869:18 0.3306
25 net_15869:18 inst_14635:A 0.1569
26 net_15869:10 net_15869:19 0.4692
27 net_15869:19 net_15869:20 0.4766
28 net_15869:20 net_15869:21 0.0589
29 net_15869:21 inst_2126:A 0.0962
30 net_15869:11 net_15869:22 0.1436
31 net_15869:22 net_15869:23 0.1762
32 net_15869:23 inst_1749:B1 0.4748
*END

*D_NET net_6190 2.9499
*CONN
*I TAUGATE_4114:Z O
*I inst_9403:A1 I
*I inst_10148:A2 I
*CAP
1 TAUGATE_4114:Z 0.0407
2 net_6190:1 0.0491
3 net_6190:2 0.4137
4 net_6190:3 0.3046
5 inst_9403:A1 0.2987
6 net_6190:4 0.3629
7 net_6190:5 0.0787
8 net_6190:6 0.2007
9 net_6190:7 0.2971
10 net_6190:8 0.4025
11 inst_10148:A2 0.5010
*RES
2 TAUGATE_4114:Z net_6190:1 0.2640
3 net_6190:1 net_6190:2 0.1831
4 net_6190:2 net_6190:3 0.4110
5 net_6190:3 inst_9403:A1 0.0191
6 net_6190:3 net_6190:4 0.3538
7 net_6190:4 net_6190:5 0.4649
8 net_6190:5 net_6190:6 0.0482
9 net_6190:6 net_6190:7 0.1062
10 net_6190:7 net_6190:8 0.2963
11 net_6190:8 inst_10148:A2 0.4911
*END

*D_NET net_53 1.3448
*CONN
*I inst_19608:ZN O
*I inst_5118:A2 I
*CAP
1 inst_19608:ZN 0.2573
2 net_53:1 0.0616
3 net_53:2 0.4298
4 net_53:3 0.2857
5 net_53:4 0.2634
6 inst_5118:A2 0.0470
*RES
2 inst_19608:ZN net_53:1 0.0745
3 net_53:1 net_53:2 0.1738
4 net_53:2 net_53:3 0.4336
5 net_53:3 net_53:4 0.4556
6 net_53:4 inst_5118:A2 0.1284
*END

*D_NET net_1275 1.6488
*CONN
*I inst_19498:ZN O
*I inst_20452:A I
*CAP
1 inst_19498:ZN 0.1731
2 net_1275:1 0.3095
3 net_1275:2 0.4895
4 net_1275:3 0.4033
5 inst_20452:A 0.2734
*RES
2 inst_19498:ZN net_1275:1 0.3461
3 net_1275:1 net_1275:2 0.3729
4 net_1275:2 net_1275:3 0.0418
5 net_1275:3 inst_20452:A 0.3671
*END

*D_NET net_1071 1.9467
*CONN
*I inst_7698:ZN O
*I inst_12292:A I
*I inst_7584:A2 I
*CAP
1 inst_7698:ZN 0.1458
2 net_1071:1 0.0683
3 net_1071:2 0.2135
4 net_1071:3 0.4484
5 net_1071:4 0.1379
6 net_1071:5 0.1139
7 inst_7584:A2 0.0489
8 net_1071:6 0.2818
9 net_1071:7 0.3290
10 inst_12292:A 0.1592
*RES
2 inst_7698:ZN net_1071:1 0.0861
3 net_1071:1 net_1071:2 0.1477
4 net_1071:2 net_1071:3 0.4806
5 net_1071:3 net_1071:4 0.3473
6 net_1071:4 net_1071:5 0.1114
7 net_1071:5 inst_7584:A2 0.0198
8 net_1071:3 net_1071:6 0.4236
9 net_1071:6 net_1071:7 0.3328
10 net_1071:7 inst_12292:A 0.1906
*END

*D_NET net_2669 3.1148
*CONN
*I inst_4948:ZN O
*I inst_11597:A2 I
*I inst_11454:A2 I
*CAP
1 inst_4948:ZN 0.4347
2 net_2669:1 0.1394
3 net_2669:2 0.0096
4 net_2669:3 0.4963
5 net_2669:4 0.2377
6 inst_11454:A2 0.2571
7 net_2669:5 0.1345
8 net_2669:6 0.4134
9 net_2669:7 0.0741
10 net_2669:8 0.4290
11 inst_11597:A2 0.4891
*RES
2 inst_4948:ZN net_2669:1 0.3610
3 net_2669:1 net_2669:2 0.0042
4 net_2669:2 net_2669:3 0.2690
5 net_2669:3 net_2669:4 0.3841
6 net_2669:4 inst_11454:A2 0.3400
7 net_2669:2 net_2669:5 0.0621
8 net_2669:5 net_2669:6 0.2122
9 net_2669:6 net_2669:7 0.2034
10 net_2669:7 net_2669:8 0.1253
11 net_2669:8 inst_11597:A2 0.2112
*END

*D_NET net_9028 3.0270
*CONN
*I TAUGATE_3414:Z O
*I inst_2164:B2 I
*I inst_20994:C2 I
*I inst_10427:A2 I
*I inst_10743:A2 I
*CAP
1 TAUGATE_3414:Z 0.1106
2 net_9028:1 0.2644
3 inst_20994:C2 0.3395
4 net_9028:2 0.0383
5 inst_2164:B2 0.2939
6 net_9028:3 0.2308
7 net_9028:4 0.1825
8 net_9028:5 0.4154
9 net_9028:6 0.4205
10 inst_10427:A2 0.1921
11 net_9028:7 0.3586
12 inst_10743:A2 0.1804
*RES
2 TAUGATE_3414:Z net_9028:1 0.4160
3 net_9028:1 inst_20994:C2 0.1311
4 net_9028:1 net_9028:2 0.2177
5 net_9028:2 inst_2164:B2 0.0520
6 net_9028:1 net_9028:3 0.3303
7 net_9028:3 net_9028:4 0.0500
8 net_9028:4 net_9028:5 0.3450
9 net_9028:5 net_9028:6 0.2552
10 net_9028:6 inst_10427:A2 0.2397
11 net_9028:5 net_9028:7 0.2132
12 net_9028:7 inst_10743:A2 0.3448
*END

*D_NET TAUNET_243 1.1677
*CONN
*I inst_11639:ZN O
*I TAUGATE_243:A I
*I inst_6736:A2 I
*CAP
1 inst_11639:ZN 0.0169
2 TAUNET_243:1 0.3418
3 TAUNET_243:2 0.0277
4 TAUNET_243:3 0.2232
5 inst_6736:A2 0.0700
6 TAUNET_243:4 0.2720
7 TAUNET_243:5 0.0605
8 TAUGATE_243:A 0.1555
*RES
2 inst_11639:ZN TAUNET_243:1 0.3825
3 TAUNET_243:1 TAUNET_243:2 0.4916
4 TAUNET_243:2 TAUNET_243:3 0.0258
5 TAUNET_243:3 inst_6736:A2 0.0722
6 TAUNET_243:2 TAUNET_243:4 0.4347
7 TAUNET_243:4 TAUNET_243:5 0.2976
8 TAUNET_243:5 TAUGATE_243:A 0.3531
*END

*D_NET net_14895 0.8501
*CONN
*I inst_20482:ZN O
*I inst_3415:A2 I
*CAP
1 inst_20482:ZN 0.1823
2 net_14895:1 0.3163
3 inst_3415:A2 0.3515
*RES
2 inst_20482:ZN net_14895:1 0.2983
3 net_14895:1 inst_3415:A2 0.4269
*END

*D_NET TAUNET_2858 4.4278
*CONN
*I inst_17225:ZN O
*I TAUGATE_2858:A I
*I inst_16958:A I
*I inst_6605:A1 I
*I inst_17076:A I
*CAP
1 inst_17225:ZN 0.0341
2 TAUNET_2858:1 0.3389
3 TAUNET_2858:2 0.4000
4 TAUNET_2858:3 0.0188
5 TAUNET_2858:4 0.4709
6 TAUGATE_2858:A 0.4204
7 TAUNET_2858:5 0.0970
8 TAUNET_2858:6 0.2798
9 TAUNET_2858:7 0.3150
10 inst_16958:A 0.0137
11 TAUNET_2858:8 0.4010
12 inst_6605:A1 0.2910
13 TAUNET_2858:9 0.3715
14 TAUNET_2858:10 0.3144
15 TAUNET_2858:11 0.3618
16 TAUNET_2858:12 0.0820
17 inst_17076:A 0.2174
*RES
2 inst_17225:ZN TAUNET_2858:1 0.0122
3 TAUNET_2858:1 TAUNET_2858:2 0.2688
4 TAUNET_2858:2 TAUNET_2858:3 0.0936
5 TAUNET_2858:3 TAUNET_2858:4 0.3051
6 TAUNET_2858:4 TAUGATE_2858:A 0.1197
7 TAUNET_2858:3 TAUNET_2858:5 0.2108
8 TAUNET_2858:5 TAUNET_2858:6 0.3101
9 TAUNET_2858:6 TAUNET_2858:7 0.0161
10 TAUNET_2858:7 inst_16958:A 0.2047
11 TAUNET_2858:6 TAUNET_2858:8 0.3768
12 TAUNET_2858:8 inst_6605:A1 0.3083
13 TAUNET_2858:2 TAUNET_2858:9 0.3638
14 TAUNET_2858:9 TAUNET_2858:10 0.4097
15 TAUNET_2858:10 TAUNET_2858:11 0.2418
16 TAUNET_2858:11 TAUNET_2858:12 0.4080
17 TAUNET_2858:12 inst_17076:A 0.3118
*END

*D_NET net_4485 10.5512
*CONN
*I inst_16311:ZN O
*I inst_6698:A1 I
*I inst_7514:A1 I
*I inst_11379:A2 I
*I inst_7420:A2 I
*I inst_5627:A3 I
*I inst_11319:A2 I
*I inst_4325:A1 I
*I inst_6699:A3 I
*I inst_7523:A2 I
*CAP
1 inst_16311:ZN 0.3134
2 net_4485:1 0.1396
3 net_4485:2 0.0910
4 net_4485:3 0.1278
5 net_4485:4 0.3093
6 net_4485:5 0.3342
7 inst_7523:A2 0.2150
8 net_4485:6 0.2677
9 net_4485:7 0.2426
10 net_4485:8 0.1466
11 net_4485:9 0.2784
12 net_4485:10 0.2008
13 inst_7514:A1 0.3776
14 net_4485:11 0.3242
15 net_4485:12 0.2336
16 net_4485:13 0.3863
17 net_4485:14 0.2365
18 inst_11379:A2 0.1037
19 net_4485:15 0.2417
20 net_4485:16 0.2444
21 net_4485:17 0.4262
22 net_4485:18 0.3737
23 net_4485:19 0.3015
24 inst_7420:A2 0.1830
25 net_4485:20 0.1111
26 net_4485:21 0.3711
27 net_4485:22 0.0512
28 inst_5627:A3 0.1351
29 net_4485:23 0.3234
30 net_4485:24 0.4610
31 inst_11319:A2 0.4832
32 net_4485:25 0.1588
33 net_4485:26 0.3738
34 net_4485:27 0.4556
35 net_4485:28 0.1835
36 inst_4325:A1 0.0020
37 net_4485:29 0.1100
38 net_4485:30 0.1662
39 net_4485:31 0.3178
40 net_4485:32 0.2541
41 inst_6699:A3 0.2497
42 net_4485:33 0.2326
43 inst_6698:A1 0.0121
*RES
2 inst_16311:ZN net_4485:1 0.0109
3 net_4485:1 net_4485:2 0.1830
4 net_4485:2 net_4485:3 0.2298
5 net_4485:3 net_4485:4 0.0712
6 net_4485:4 net_4485:5 0.0044
7 net_4485:5 inst_7523:A2 0.1986
8 net_4485:3 net_4485:6 0.2937
9 net_4485:6 net_4485:7 0.0093
10 net_4485:7 net_4485:8 0.2822
11 net_4485:8 net_4485:9 0.4311
12 net_4485:9 net_4485:10 0.0309
13 net_4485:10 inst_7514:A1 0.1138
14 net_4485:8 net_4485:11 0.3572
15 net_4485:11 net_4485:12 0.2211
16 net_4485:12 net_4485:13 0.2185
17 net_4485:13 net_4485:14 0.2266
18 net_4485:14 inst_11379:A2 0.2538
19 net_4485:4 net_4485:15 0.3035
20 net_4485:15 net_4485:16 0.4053
21 net_4485:16 net_4485:17 0.0863
22 net_4485:17 net_4485:18 0.2362
23 net_4485:18 net_4485:19 0.1365
24 net_4485:19 inst_7420:A2 0.0277
25 net_4485:17 net_4485:20 0.0984
26 net_4485:20 net_4485:21 0.0368
27 net_4485:21 net_4485:22 0.4376
28 net_4485:22 inst_5627:A3 0.1423
29 net_4485:6 net_4485:23 0.2776
30 net_4485:23 net_4485:24 0.3781
31 net_4485:24 inst_11319:A2 0.3766
32 net_4485:1 net_4485:25 0.2614
33 net_4485:25 net_4485:26 0.3010
34 net_4485:26 net_4485:27 0.2164
35 net_4485:27 net_4485:28 0.4372
36 net_4485:28 inst_4325:A1 0.1158
37 net_4485:7 net_4485:29 0.4625
38 net_4485:29 net_4485:30 0.2343
39 net_4485:30 net_4485:31 0.0981
40 net_4485:31 net_4485:32 0.3461
41 net_4485:32 inst_6699:A3 0.2382
42 net_4485:27 net_4485:33 0.2674
43 net_4485:33 inst_6698:A1 0.2072
*END

*D_NET net_10504 13.3452
*CONN
*I TAUGATE_1047:Z O
*I inst_10401:A1 I
*I inst_16027:A I
*I inst_16022:A I
*I inst_1763:A I
*I inst_9993:A1 I
*I inst_1303:A1 I
*I inst_20377:B1 I
*I inst_9150:A1 I
*I inst_2380:C2 I
*I inst_2163:A I
*I inst_16002:A I
*CAP
1 TAUGATE_1047:Z 0.2455
2 net_10504:1 0.0138
3 net_10504:2 0.4527
4 inst_10401:A1 0.3131
5 net_10504:3 0.4199
6 net_10504:4 0.3736
7 net_10504:5 0.3306
8 inst_16027:A 0.3042
9 net_10504:6 0.0758
10 net_10504:7 0.0262
11 net_10504:8 0.3812
12 net_10504:9 0.0656
13 inst_16022:A 0.1550
14 net_10504:10 0.3913
15 net_10504:11 0.2131
16 net_10504:12 0.3201
17 net_10504:13 0.0320
18 net_10504:14 0.2786
19 inst_1763:A 0.3378
20 net_10504:15 0.4105
21 net_10504:16 0.3004
22 net_10504:17 0.3665
23 net_10504:18 0.1341
24 inst_9993:A1 0.0859
25 net_10504:19 0.1840
26 net_10504:20 0.4010
27 net_10504:21 0.3573
28 net_10504:22 0.4559
29 inst_1303:A1 0.3575
30 net_10504:23 0.1660
31 net_10504:24 0.2177
32 inst_20377:B1 0.2908
33 net_10504:25 0.0675
34 net_10504:26 0.0053
35 inst_9150:A1 0.1459
36 net_10504:27 0.4574
37 net_10504:28 0.4683
38 net_10504:29 0.1543
39 net_10504:30 0.4873
40 inst_2380:C2 0.1669
41 net_10504:31 0.4210
42 net_10504:32 0.2594
43 net_10504:33 0.3565
44 inst_2163:A 0.4074
45 net_10504:34 0.3870
46 net_10504:35 0.3663
47 net_10504:36 0.1512
48 net_10504:37 0.1368
49 inst_16002:A 0.4493
*RES
2 TAUGATE_1047:Z net_10504:1 0.4392
3 net_10504:1 net_10504:2 0.4048
4 net_10504:2 inst_10401:A1 0.0368
5 net_10504:2 net_10504:3 0.1317
6 net_10504:3 net_10504:4 0.1481
7 net_10504:4 net_10504:5 0.2485
8 net_10504:5 inst_16027:A 0.2201
9 net_10504:3 net_10504:6 0.0047
10 net_10504:6 net_10504:7 0.1418
11 net_10504:7 net_10504:8 0.2138
12 net_10504:8 net_10504:9 0.3805
13 net_10504:9 inst_16022:A 0.2523
14 net_10504:1 net_10504:10 0.4364
15 net_10504:10 net_10504:11 0.2454
16 net_10504:11 net_10504:12 0.4527
17 net_10504:12 net_10504:13 0.2663
18 net_10504:13 net_10504:14 0.3641
19 net_10504:14 inst_1763:A 0.1740
20 net_10504:8 net_10504:15 0.1706
21 net_10504:15 net_10504:16 0.3812
22 net_10504:16 net_10504:17 0.0751
23 net_10504:17 net_10504:18 0.1227
24 net_10504:18 inst_9993:A1 0.0294
25 net_10504:14 net_10504:19 0.1715
26 net_10504:19 net_10504:20 0.3050
27 net_10504:20 net_10504:21 0.3594
28 net_10504:21 net_10504:22 0.4902
29 net_10504:22 inst_1303:A1 0.4716
30 net_10504:8 net_10504:23 0.3318
31 net_10504:23 net_10504:24 0.3308
32 net_10504:24 inst_20377:B1 0.4080
33 net_10504:23 net_10504:25 0.0437
34 net_10504:25 net_10504:26 0.4598
35 net_10504:26 inst_9150:A1 0.3838
36 net_10504:11 net_10504:27 0.4800
37 net_10504:27 net_10504:28 0.4518
38 net_10504:28 net_10504:29 0.0570
39 net_10504:29 net_10504:30 0.4909
40 net_10504:30 inst_2380:C2 0.0572
41 net_10504:6 net_10504:31 0.4309
42 net_10504:31 net_10504:32 0.4474
43 net_10504:32 net_10504:33 0.2931
44 net_10504:33 inst_2163:A 0.2848
45 net_10504:15 net_10504:34 0.4663
46 net_10504:34 net_10504:35 0.2866
47 net_10504:35 net_10504:36 0.1873
48 net_10504:36 net_10504:37 0.1599
49 net_10504:37 inst_16002:A 0.3589
*END

*D_NET net_14379 0.9589
*CONN
*I inst_3480:ZN O
*I inst_19921:D I
*CAP
1 inst_3480:ZN 0.4844
2 net_14379:1 0.2861
3 inst_19921:D 0.1883
*RES
2 inst_3480:ZN net_14379:1 0.3075
3 net_14379:1 inst_19921:D 0.0604
*END

*D_NET net_2402 7.1622
*CONN
*I inst_7649:ZN O
*I inst_11676:A2 I
*I inst_20058:A2 I
*I inst_7502:A1 I
*I inst_7491:A2 I
*I inst_4975:A2 I
*CAP
1 inst_7649:ZN 0.2921
2 net_2402:1 0.1285
3 net_2402:2 0.0491
4 net_2402:3 0.3511
5 net_2402:4 0.2111
6 net_2402:5 0.3010
7 inst_7491:A2 0.1515
8 net_2402:6 0.3648
9 net_2402:7 0.4404
10 net_2402:8 0.3187
11 net_2402:9 0.4272
12 net_2402:10 0.0224
13 inst_20058:A2 0.4026
14 net_2402:11 0.1530
15 net_2402:12 0.2582
16 net_2402:13 0.4484
17 inst_7502:A1 0.0762
18 net_2402:14 0.2972
19 net_2402:15 0.3936
20 net_2402:16 0.4880
21 net_2402:17 0.4169
22 net_2402:18 0.3167
23 inst_11676:A2 0.3376
24 net_2402:19 0.1251
25 net_2402:20 0.0048
26 net_2402:21 0.3126
27 net_2402:22 0.0195
28 inst_4975:A2 0.0541
*RES
2 inst_7649:ZN net_2402:1 0.0492
3 net_2402:1 net_2402:2 0.2707
4 net_2402:2 net_2402:3 0.0711
5 net_2402:3 net_2402:4 0.2365
6 net_2402:4 net_2402:5 0.0021
7 net_2402:5 inst_7491:A2 0.2080
8 net_2402:4 net_2402:6 0.2784
9 net_2402:6 net_2402:7 0.1803
10 net_2402:7 net_2402:8 0.0882
11 net_2402:8 net_2402:9 0.2924
12 net_2402:9 net_2402:10 0.4780
13 net_2402:10 inst_20058:A2 0.3510
14 net_2402:3 net_2402:11 0.1986
15 net_2402:11 net_2402:12 0.3922
16 net_2402:12 net_2402:13 0.3950
17 net_2402:13 inst_7502:A1 0.2666
18 net_2402:12 net_2402:14 0.1073
19 net_2402:14 net_2402:15 0.3579
20 net_2402:15 net_2402:16 0.1300
21 net_2402:16 net_2402:17 0.3795
22 net_2402:17 net_2402:18 0.2362
23 net_2402:18 inst_11676:A2 0.1908
24 net_2402:8 net_2402:19 0.3700
25 net_2402:19 net_2402:20 0.3260
26 net_2402:20 net_2402:21 0.3466
27 net_2402:21 net_2402:22 0.4948
28 net_2402:22 inst_4975:A2 0.4038
*END

*D_NET net_11493 5.7051
*CONN
*I inst_7198:ZN O
*I inst_9300:A2 I
*I inst_3671:A1 I
*I inst_6424:A3 I
*I inst_9699:A2 I
*I inst_5922:A2 I
*I inst_20709:B1 I
*CAP
1 inst_7198:ZN 0.0063
2 net_11493:1 0.0915
3 net_11493:2 0.4619
4 net_11493:3 0.1065
5 net_11493:4 0.1990
6 net_11493:5 0.2576
7 inst_6424:A3 0.0690
8 net_11493:6 0.3226
9 net_11493:7 0.1282
10 inst_3671:A1 0.2766
11 net_11493:8 0.0714
12 net_11493:9 0.2110
13 net_11493:10 0.2588
14 net_11493:11 0.0339
15 inst_9300:A2 0.0519
16 net_11493:12 0.3416
17 inst_9699:A2 0.4099
18 net_11493:13 0.1516
19 net_11493:14 0.2746
20 inst_5922:A2 0.4228
21 net_11493:15 0.4926
22 net_11493:16 0.0580
23 net_11493:17 0.3810
24 net_11493:18 0.2195
25 net_11493:19 0.2042
26 inst_20709:B1 0.2030
*RES
2 inst_7198:ZN net_11493:1 0.2231
3 net_11493:1 net_11493:2 0.2934
4 net_11493:2 net_11493:3 0.0661
5 net_11493:3 net_11493:4 0.0281
6 net_11493:4 net_11493:5 0.1011
7 net_11493:5 inst_6424:A3 0.2539
8 net_11493:1 net_11493:6 0.4045
9 net_11493:6 net_11493:7 0.4267
10 net_11493:7 inst_3671:A1 0.4596
11 net_11493:7 net_11493:8 0.4874
12 net_11493:8 net_11493:9 0.0374
13 net_11493:9 net_11493:10 0.2489
14 net_11493:10 net_11493:11 0.2584
15 net_11493:11 inst_9300:A2 0.0346
16 net_11493:10 net_11493:12 0.1540
17 net_11493:12 inst_9699:A2 0.0325
18 net_11493:3 net_11493:13 0.1417
19 net_11493:13 net_11493:14 0.3754
20 net_11493:14 inst_5922:A2 0.2016
21 net_11493:6 net_11493:15 0.2656
22 net_11493:15 net_11493:16 0.4413
23 net_11493:16 net_11493:17 0.1336
24 net_11493:17 net_11493:18 0.4042
25 net_11493:18 net_11493:19 0.0451
26 net_11493:19 inst_20709:B1 0.2391
*END

*D_NET TAUNET_4620 0.9045
*CONN
*I TAUGATE_952:Z O
*I TAUGATE_4620:A I
*CAP
1 TAUGATE_952:Z 0.4146
2 TAUNET_4620:1 0.2654
3 TAUGATE_4620:A 0.2245
*RES
2 TAUGATE_952:Z TAUNET_4620:1 0.4797
3 TAUNET_4620:1 TAUGATE_4620:A 0.0551
*END

*D_NET net_11604 1.5272
*CONN
*I inst_9431:ZN O
*I inst_13261:A I
*CAP
1 inst_9431:ZN 0.0973
2 net_11604:1 0.1903
3 net_11604:2 0.2143
4 net_11604:3 0.0701
5 net_11604:4 0.2421
6 net_11604:5 0.4634
7 inst_13261:A 0.2497
*RES
2 inst_9431:ZN net_11604:1 0.2766
3 net_11604:1 net_11604:2 0.3086
4 net_11604:2 net_11604:3 0.2353
5 net_11604:3 net_11604:4 0.4838
6 net_11604:4 net_11604:5 0.0722
7 net_11604:5 inst_13261:A 0.3539
*END

*D_NET net_999 11.8686
*CONN
*I inst_12419:ZN O
*I inst_4853:A1 I
*I inst_16817:A I
*I inst_12387:A I
*I inst_17868:A I
*I inst_17199:A I
*I inst_11943:A1 I
*I inst_21360:A2 I
*I inst_3307:A2 I
*I inst_3275:A2 I
*I inst_11476:A1 I
*I inst_12330:A I
*CAP
1 inst_12419:ZN 0.0192
2 net_999:1 0.4054
3 net_999:2 0.3681
4 inst_3307:A2 0.4419
5 net_999:3 0.1374
6 net_999:4 0.1713
7 net_999:5 0.2153
8 net_999:6 0.3119
9 net_999:7 0.4918
10 inst_16817:A 0.3583
11 net_999:8 0.4721
12 net_999:9 0.1185
13 net_999:10 0.4585
14 inst_12387:A 0.3703
15 net_999:11 0.1640
16 net_999:12 0.1778
17 net_999:13 0.3155
18 net_999:14 0.4909
19 net_999:15 0.2285
20 inst_17868:A 0.2293
21 net_999:16 0.3973
22 net_999:17 0.0682
23 net_999:18 0.0813
24 inst_17199:A 0.2235
25 net_999:19 0.2711
26 net_999:20 0.1177
27 net_999:21 0.1130
28 net_999:22 0.0719
29 inst_11943:A1 0.2913
30 net_999:23 0.4330
31 net_999:24 0.3792
32 inst_21360:A2 0.3945
33 net_999:25 0.3986
34 inst_4853:A1 0.0342
35 net_999:26 0.0789
36 net_999:27 0.1418
37 net_999:28 0.2162
38 net_999:29 0.3480
39 net_999:30 0.3423
40 inst_3275:A2 0.3091
41 net_999:31 0.2194
42 net_999:32 0.0694
43 net_999:33 0.1731
44 net_999:34 0.0340
45 inst_11476:A1 0.1910
46 net_999:35 0.1398
47 inst_12330:A 0.3850
*RES
2 inst_12419:ZN net_999:1 0.1561
3 net_999:1 net_999:2 0.1347
4 net_999:2 inst_3307:A2 0.0224
5 net_999:1 net_999:3 0.0251
6 net_999:3 net_999:4 0.0071
7 net_999:4 net_999:5 0.2242
8 net_999:5 net_999:6 0.4834
9 net_999:6 net_999:7 0.4589
10 net_999:7 inst_16817:A 0.0098
11 net_999:5 net_999:8 0.0365
12 net_999:8 net_999:9 0.4409
13 net_999:9 net_999:10 0.4335
14 net_999:10 inst_12387:A 0.3158
15 net_999:6 net_999:11 0.4514
16 net_999:11 net_999:12 0.1489
17 net_999:12 net_999:13 0.3442
18 net_999:13 net_999:14 0.1815
19 net_999:14 net_999:15 0.2112
20 net_999:15 inst_17868:A 0.3238
21 net_999:5 net_999:16 0.0018
22 net_999:16 net_999:17 0.2665
23 net_999:17 net_999:18 0.4580
24 net_999:18 inst_17199:A 0.4392
25 net_999:18 net_999:19 0.3837
26 net_999:19 net_999:20 0.4308
27 net_999:20 net_999:21 0.4593
28 net_999:21 net_999:22 0.4578
29 net_999:22 inst_11943:A1 0.1666
30 net_999:19 net_999:23 0.1168
31 net_999:23 net_999:24 0.0632
32 net_999:24 inst_21360:A2 0.3389
33 net_999:11 net_999:25 0.1492
34 net_999:25 inst_4853:A1 0.1342
35 net_999:12 net_999:26 0.3077
36 net_999:26 net_999:27 0.0259