*SPEF "IEEE 1481-1998"
*DESIGN "changes"
*DATE "Tue Dec 02 18:56:30 2014"
*VENDOR "TAU 2015 Contest"
*PROGRAM "Benchmark Parasitic Generator"
*VERSION "0.0"
*DESIGN_FLOW "NETLIST_TYPE_VERILOG"
*DIVIDER /
*DELIMITER :
*BUS_DELIMITER [ ]
*T_UNIT 1 PS
*C_UNIT 1 FF
*R_UNIT 1 KOHM
*L_UNIT 1 UH

*D_NET TAUNET_4 1.7439
*CONN
*I inst_10240:ZN O
*I TAUGATE_4:A I
*CAP
1 inst_10240:ZN 0.2611
2 TAUNET_4:1 0.4098
3 TAUNET_4:2 0.5009
4 TAUNET_4:3 0.2843
5 TAUGATE_4:A 0.2878
*RES
2 inst_10240:ZN TAUNET_4:1 0.1659
3 TAUNET_4:1 TAUNET_4:2 0.2742
4 TAUNET_4:2 TAUNET_4:3 0.3494
5 TAUNET_4:3 TAUGATE_4:A 0.1485
*END

*D_NET TAUNET_2 1.3760
*CONN
*I inst_19374:ZN O
*I TAUGATE_2:A I
*CAP
1 inst_19374:ZN 0.2110
2 TAUNET_2:1 0.3070
3 TAUNET_2:2 0.3583
4 TAUNET_2:3 0.1395
5 TAUNET_2:4 0.0646
6 TAUNET_2:5 0.0794
7 TAUGATE_2:A 0.2161
*RES
2 inst_19374:ZN TAUNET_2:1 0.1614
3 TAUNET_2:1 TAUNET_2:2 0.3312
4 TAUNET_2:2 TAUNET_2:3 0.3755
5 TAUNET_2:3 TAUNET_2:4 0.4644
6 TAUNET_2:4 TAUNET_2:5 0.4559
7 TAUNET_2:5 TAUGATE_2:A 0.4050
*END

*D_NET net_8032 0.4849
*CONN
*I TAUGATE_4:Z O
*I inst_20335:B1 I
*CAP
1 TAUGATE_4:Z 0.1670
2 net_8032:1 0.2440
3 net_8032:2 0.0332
4 inst_20335:B1 0.0406
*RES
2 TAUGATE_4:Z net_8032:1 0.2732
3 net_8032:1 net_8032:2 0.0073
4 net_8032:2 inst_20335:B1 0.1308
*END

*D_NET TAUNET_3 1.8161
*CONN
*I inst_16321:ZN O
*I TAUGATE_3:A I
*CAP
1 inst_16321:ZN 0.2909
2 TAUNET_3:1 0.0740
3 TAUNET_3:2 0.4871
4 TAUNET_3:3 0.4951
5 TAUNET_3:4 0.4125
6 TAUGATE_3:A 0.0565
*RES
2 inst_16321:ZN TAUNET_3:1 0.1285
3 TAUNET_3:1 TAUNET_3:2 0.0292
4 TAUNET_3:2 TAUNET_3:3 0.2926
5 TAUNET_3:3 TAUNET_3:4 0.4507
6 TAUNET_3:4 TAUGATE_3:A 0.3356
*END

*D_NET net_4113 5.4135
*CONN
*I TAUGATE_3:Z O
*I inst_20596:B1 I
*I inst_21235:A1 I
*I inst_15922:A I
*I inst_16181:A I
*CAP
1 TAUGATE_3:Z 0.3845
2 net_4113:1 0.3056
3 net_4113:2 0.3464
4 net_4113:3 0.0305
5 net_4113:4 0.2383
6 net_4113:5 0.4020
7 inst_16181:A 0.2529
8 net_4113:6 0.2236
9 inst_21235:A1 0.1922
10 net_4113:7 0.4680
11 net_4113:8 0.2976
12 net_4113:9 0.2331
13 net_4113:10 0.2927
14 net_4113:11 0.3943
15 inst_15922:A 0.2211
16 net_4113:12 0.4792
17 net_4113:13 0.1808
18 net_4113:14 0.0717
19 inst_20596:B1 0.3990
*RES
2 TAUGATE_3:Z net_4113:1 0.2665
3 net_4113:1 net_4113:2 0.4354
4 net_4113:2 net_4113:3 0.1977
5 net_4113:3 net_4113:4 0.0788
6 net_4113:4 net_4113:5 0.3276
7 net_4113:5 inst_16181:A 0.3833
8 net_4113:4 net_4113:6 0.2805
9 net_4113:6 inst_21235:A1 0.1322
10 net_4113:3 net_4113:7 0.1955
11 net_4113:7 net_4113:8 0.1868
12 net_4113:8 net_4113:9 0.4889
13 net_4113:9 net_4113:10 0.0703
14 net_4113:10 net_4113:11 0.3298
15 net_4113:11 inst_15922:A 0.4131
16 net_4113:7 net_4113:12 0.4035
17 net_4113:12 net_4113:13 0.0219
18 net_4113:13 net_4113:14 0.0830
19 net_4113:14 inst_20596:B1 0.4539
*END

*D_NET net_2185 2.1062
*CONN
*I TAUGATE_2:Z O
*I inst_20842:B1 I
*CAP
1 TAUGATE_2:Z 0.3196
2 net_2185:1 0.3591
3 net_2185:2 0.2780
4 net_2185:3 0.2022
5 net_2185:4 0.1593
6 net_2185:5 0.4382
7 inst_20842:B1 0.3498
*RES
2 TAUGATE_2:Z net_2185:1 0.4055
3 net_2185:1 net_2185:2 0.4519
4 net_2185:2 net_2185:3 0.4658
5 net_2185:3 net_2185:4 0.3690
6 net_2185:4 net_2185:5 0.4019
7 net_2185:5 inst_20842:B1 0.0632
*END

