*SPEF "IEEE 1481-1998"
*DESIGN "changes"
*DATE "Tue Dec 02 18:56:30 2014"
*VENDOR "TAU 2015 Contest"
*PROGRAM "Benchmark Parasitic Generator"
*VERSION "0.0"
*DESIGN_FLOW "NETLIST_TYPE_VERILOG"
*DIVIDER /
*DELIMITER :
*BUS_DELIMITER [ ]
*T_UNIT 1 PS
*C_UNIT 1 FF
*R_UNIT 1 KOHM
*L_UNIT 1 UH

*D_NET net_19117 1.7439
*CONN
*I TAUGATE_8:Z O
*I inst_5844:A1 I
*CAP
1 TAUGATE_8:Z 0.2611
2 net_19117:1 0.4098
3 net_19117:2 0.5009
4 net_19117:3 0.2843
5 inst_5844:A1 0.2878
*RES
2 TAUGATE_8:Z net_19117:1 0.1659
3 net_19117:1 net_19117:2 0.2742
4 net_19117:2 net_19117:3 0.3494
5 net_19117:3 inst_5844:A1 0.1485
*END

*D_NET TAUNET_9 1.3760
*CONN
*I inst_14461:ZN O
*I TAUGATE_9:A I
*CAP
1 inst_14461:ZN 0.2110
2 TAUNET_9:1 0.3070
3 TAUNET_9:2 0.3583
4 TAUNET_9:3 0.1395
5 TAUNET_9:4 0.0646
6 TAUNET_9:5 0.0794
7 TAUGATE_9:A 0.2161
*RES
2 inst_14461:ZN TAUNET_9:1 0.1614
3 TAUNET_9:1 TAUNET_9:2 0.3312
4 TAUNET_9:2 TAUNET_9:3 0.3755
5 TAUNET_9:3 TAUNET_9:4 0.4644
6 TAUNET_9:4 TAUNET_9:5 0.4559
7 TAUNET_9:5 TAUGATE_9:A 0.4050
*END

*D_NET TAUNET_5 0.4849
*CONN
*I inst_17672:ZN O
*I TAUGATE_5:A I
*CAP
1 inst_17672:ZN 0.1670
2 TAUNET_5:1 0.2440
3 TAUNET_5:2 0.0332
4 TAUGATE_5:A 0.0406
*RES
2 inst_17672:ZN TAUNET_5:1 0.2732
3 TAUNET_5:1 TAUNET_5:2 0.0073
4 TAUNET_5:2 TAUGATE_5:A 0.1308
*END

*D_NET TAUNET_8 1.8161
*CONN
*I inst_20212:ZN O
*I TAUGATE_8:A I
*CAP
1 inst_20212:ZN 0.2909
2 TAUNET_8:1 0.0740
3 TAUNET_8:2 0.4871
4 TAUNET_8:3 0.4951
5 TAUNET_8:4 0.4125
6 TAUGATE_8:A 0.0565
*RES
2 inst_20212:ZN TAUNET_8:1 0.1285
3 TAUNET_8:1 TAUNET_8:2 0.0292
4 TAUNET_8:2 TAUNET_8:3 0.2926
5 TAUNET_8:3 TAUNET_8:4 0.4507
6 TAUNET_8:4 TAUGATE_8:A 0.3356
*END

*D_NET net_6086 2.3760
*CONN
*I TAUGATE_9:Z O
*I inst_14137:A I
*I inst_10257:A2 I
*CAP
1 TAUGATE_9:Z 0.3845
2 net_6086:1 0.3056
3 net_6086:2 0.3464
4 net_6086:3 0.0305
5 net_6086:4 0.2383
6 net_6086:5 0.4020
7 inst_10257:A2 0.2529
8 net_6086:6 0.2236
9 inst_14137:A 0.1922
*RES
2 TAUGATE_9:Z net_6086:1 0.2665
3 net_6086:1 net_6086:2 0.4354
4 net_6086:2 net_6086:3 0.1977
5 net_6086:3 net_6086:4 0.0788
6 net_6086:4 net_6086:5 0.3276
7 net_6086:5 inst_10257:A2 0.3833
8 net_6086:4 net_6086:6 0.2805
9 net_6086:6 inst_14137:A 0.1322
*END

*D_NET TAUNET_6 2.0360
*CONN
*I inst_18398:ZN O
*I TAUGATE_6:A I
*CAP
1 inst_18398:ZN 0.4017
2 TAUNET_6:1 0.2976
3 TAUNET_6:2 0.2331
4 TAUNET_6:3 0.2927
5 TAUNET_6:4 0.3943
6 TAUNET_6:5 0.2211
7 TAUGATE_6:A 0.1955
*RES
2 inst_18398:ZN TAUNET_6:1 0.1868
3 TAUNET_6:1 TAUNET_6:2 0.4889
4 TAUNET_6:2 TAUNET_6:3 0.0703
5 TAUNET_6:3 TAUNET_6:4 0.3298
6 TAUNET_6:4 TAUNET_6:5 0.4131
7 TAUNET_6:5 TAUGATE_6:A 0.3310
*END

*D_NET net_12034 1.3534
*CONN
*I TAUGATE_7:Z O
*I inst_9044:A2 I
*CAP
1 TAUGATE_7:Z 0.4792
2 net_12034:1 0.0717
3 net_12034:2 0.3990
4 inst_9044:A2 0.4035
*RES
2 TAUGATE_7:Z net_12034:1 0.0219
3 net_12034:1 net_12034:2 0.0830
4 net_12034:2 inst_9044:A2 0.4539
*END

*D_NET net_690 5.6526
*CONN
*I TAUGATE_5:Z O
*I inst_20038:B1 I
*I inst_17225:A I
*I inst_17505:A I
*CAP
1 TAUGATE_5:Z 0.3196
2 net_690:1 0.3591
3 net_690:2 0.2780
4 net_690:3 0.2022
5 net_690:4 0.1593
6 net_690:5 0.4382
7 inst_20038:B1 0.3498
8 net_690:6 0.3789
9 net_690:7 0.3545
10 net_690:8 0.1033
11 net_690:9 0.4316
12 net_690:10 0.1782
13 inst_17225:A 0.4734
14 net_690:11 0.2434
15 net_690:12 0.3726
16 net_690:13 0.2980
17 net_690:14 0.2454
18 inst_17505:A 0.4670
*RES
2 TAUGATE_5:Z net_690:1 0.4055
3 net_690:1 net_690:2 0.4519
4 net_690:2 net_690:3 0.4658
5 net_690:3 net_690:4 0.3690
6 net_690:4 net_690:5 0.4019
7 net_690:5 inst_20038:B1 0.0632
8 net_690:3 net_690:6 0.0376
9 net_690:6 net_690:7 0.0972
10 net_690:7 net_690:8 0.3594
11 net_690:8 net_690:9 0.0525
12 net_690:9 net_690:10 0.3248
13 net_690:10 inst_17225:A 0.2597
14 net_690:3 net_690:11 0.1921
15 net_690:11 net_690:12 0.1376
16 net_690:12 net_690:13 0.4443
17 net_690:13 net_690:14 0.1288
18 net_690:14 inst_17505:A 0.3022
*END

*D_NET net_16442 1.8873
*CONN
*I TAUGATE_6:Z O
*I inst_350:A I
*CAP
1 TAUGATE_6:Z 0.0668
2 net_16442:1 0.4131
3 net_16442:2 0.4004
4 net_16442:3 0.4814
5 net_16442:4 0.1341
6 inst_350:A 0.3915
*RES
2 TAUGATE_6:Z net_16442:1 0.0282
3 net_16442:1 net_16442:2 0.3089
4 net_16442:2 net_16442:3 0.0253
5 net_16442:3 net_16442:4 0.3105
6 net_16442:4 inst_350:A 0.1881
*END

*D_NET TAUNET_7 1.4805
*CONN
*I inst_6379:ZN O
*I TAUGATE_7:A I
*CAP
1 inst_6379:ZN 0.1592
2 TAUNET_7:1 0.2761
3 TAUNET_7:2 0.3643
4 TAUNET_7:3 0.2288
5 TAUNET_7:4 0.0666
6 TAUGATE_7:A 0.3854
*RES
2 inst_6379:ZN TAUNET_7:1 0.3580
3 TAUNET_7:1 TAUNET_7:2 0.3774
4 TAUNET_7:2 TAUNET_7:3 0.2731
5 TAUNET_7:3 TAUNET_7:4 0.1525
6 TAUNET_7:4 TAUGATE_7:A 0.0518
*END

