*SPEF "IEEE 1481-1998"
*DESIGN "c880"
*DATE "Tue Nov 25 16:54:59 2014"
*VENDOR "TAU 2015 Contest"
*PROGRAM "Benchmark Parasitic Generator"
*VERSION "0.0"
*DESIGN_FLOW "NETLIST_TYPE_VERILOG"
*DIVIDER /
*DELIMITER :
*BUS_DELIMITER [ ]
*T_UNIT 1 PS
*C_UNIT 1 FF
*R_UNIT 1 KOHM
*L_UNIT 1 UH

*D_NET net_47 0.3410
*CONN
*I inst_14:ZN O
*I inst_17:A I
*CAP
1 inst_14:ZN 0.0166
2 inst_17:A 0.0166
3 net_47:1 0.0844
4 net_47:2 0.0844
5 net_47:3 0.0259
6 net_47:4 0.0259
7 net_47:5 0.0436
8 net_47:6 0.0436
*RES
2 inst_17:A net_47:6 0.0050
3 net_47:1 inst_14:ZN 0.0050
4 net_47:2 net_47:1 0.0115
5 net_47:3 net_47:2 0.0050
6 net_47:3 net_47:4 0.0020
7 net_47:5 net_47:4 0.0050
8 net_47:6 net_47:5 0.0045
*END

*D_NET net_176 0.1718
*CONN
*I inst_172:ZN O
*I inst_69:A4 I
*CAP
1 inst_172:ZN 0.0166
2 inst_69:A4 0.0166
3 net_176:1 0.0173
4 net_176:2 0.0173
5 net_176:3 0.0234
6 net_176:4 0.0234
7 net_176:5 0.0286
8 net_176:6 0.0286
*RES
2 inst_172:ZN net_176:6 0.0050
3 net_176:1 inst_69:A4 0.0050
4 net_176:1 net_176:2 0.0010
5 net_176:3 net_176:2 0.0050
6 net_176:3 net_176:4 0.0014
7 net_176:5 net_176:4 0.0050
8 net_176:5 net_176:6 0.0015
*END

*D_NET net_137 0.1860
*CONN
*I inst_42:ZN O
*I inst_198:A2 I
*CAP
1 inst_42:ZN 0.0072
2 inst_198:A2 0.0166
3 net_137:1 0.0197
4 net_137:2 0.0197
5 net_137:3 0.0461
6 net_137:4 0.0461
7 net_137:5 0.0152
8 net_137:6 0.0155
*RES
2 net_137:1 inst_198:A2 0.0050
3 net_137:2 net_137:1 0.0010
4 net_137:3 net_137:2 0.0050
5 net_137:3 net_137:4 0.0034
6 net_137:5 net_137:4 0.0050
7 net_137:6 inst_42:ZN 0.0010
8 net_137:6 net_137:5 0.0050
*END

*D_NET n159gat 1.0704
*CONN
*P n159gat I
*I inst_3:A I
*I inst_133:A1 I
*I inst_29:A1 I
*I inst_135:A1 I
*CAP
1 n159gat 0.1722
2 inst_3:A 0.0166
3 inst_133:A1 0.0166
4 inst_29:A1 0.0166
5 inst_135:A1 0.0166
6 n159gat:1 0.0179
7 n159gat:2 0.0179
8 n159gat:3 0.0522
9 n159gat:4 0.0894
10 n159gat:5 0.0595
11 n159gat:6 0.0224
12 n159gat:7 0.0167
13 n159gat:8 0.1292
14 n159gat:9 0.0152
15 n159gat:10 0.0152
16 n159gat:11 0.1836
17 n159gat:12 0.0425
18 n159gat:13 0.0425
19 n159gat:14 0.1277
*RES
2 n159gat:1 inst_3:A 0.0050
3 n159gat:2 n159gat:1 0.0010
4 n159gat:3 n159gat:2 0.0050
5 n159gat:3 n159gat:4 0.0054
6 n159gat:4 n159gat:5 0.0020
7 n159gat:4 n159gat:9 0.0050
8 n159gat:5 n159gat:6 0.0014
9 n159gat:5 n159gat:10 0.0050
10 n159gat:7 n159gat:6 0.0050
11 n159gat:7 n159gat:8 0.0010
12 n159gat:8 inst_29:A1 0.0050
13 n159gat:8 n159gat:14 0.0110
14 n159gat:9 inst_133:A1 0.0050
15 n159gat:10 inst_135:A1 0.0050
16 n159gat:11 n159gat 0.0200
17 n159gat:12 n159gat:11 0.0050
18 n159gat:13 n159gat:12 0.0034
19 n159gat:14 n159gat:13 0.0050
*END

*D_NET net_132 0.5094
*CONN
*I inst_59:ZN O
*I inst_160:A2 I
*I inst_163:A2 I
*CAP
1 inst_59:ZN 0.0166
2 inst_160:A2 0.0166
3 inst_163:A2 0.0166
4 net_132:1 0.0152
5 net_132:2 0.0161
6 net_132:3 0.0405
7 net_132:4 0.0320
8 net_132:5 0.0152
9 net_132:6 0.0384
10 net_132:7 0.0384
11 net_132:8 0.0161
12 net_132:9 0.0161
13 net_132:10 0.1158
14 net_132:11 0.1158
*RES
2 net_132:1 inst_163:A2 0.0050
3 net_132:2 net_132:1 0.0050
4 net_132:3 net_132:2 0.0010
5 net_132:4 net_132:3 0.0015
6 net_132:4 net_132:5 0.0050
7 net_132:5 inst_160:A2 0.0050
8 net_132:6 inst_59:ZN 0.0050
9 net_132:6 net_132:7 0.0020
10 net_132:8 net_132:7 0.0050
11 net_132:9 net_132:8 0.0010
12 net_132:10 net_132:9 0.0050
13 net_132:10 net_132:11 0.0032
14 net_132:11 net_132:3 0.0050
*END

*D_NET net_54 1.7306
*CONN
*I inst_71:ZN O
*I inst_53:A2 I
*I inst_27:A3 I
*CAP
1 inst_71:ZN 0.0166
2 inst_53:A2 0.0072
3 inst_27:A3 0.0166
4 net_54:1 0.0173
5 net_54:2 0.0173
6 net_54:3 0.0612
7 net_54:4 0.0370
8 net_54:5 0.0265
9 net_54:6 0.0265
10 net_54:7 0.0155
11 net_54:8 0.0403
12 net_54:9 0.0441
13 net_54:10 0.0172
14 net_54:11 0.0172
15 net_54:12 0.4078
16 net_54:13 0.4078
17 net_54:14 0.1539
18 net_54:15 0.1539
19 net_54:16 0.1075
20 net_54:17 0.1075
21 net_54:18 0.0318
*RES
2 inst_53:A2 net_54:7 0.0010
3 net_54:1 inst_27:A3 0.0050
4 net_54:2 net_54:1 0.0010
5 net_54:3 net_54:2 0.0050
6 net_54:3 net_54:18 0.0029
7 net_54:4 net_54:3 0.0034
8 net_54:4 net_54:5 0.0050
9 net_54:6 net_54:5 0.0025
10 net_54:6 net_54:7 0.0050
11 net_54:8 inst_71:ZN 0.0050
12 net_54:8 net_54:9 0.0020
13 net_54:10 net_54:9 0.0050
14 net_54:11 net_54:10 0.0010
15 net_54:12 net_54:11 0.0050
16 net_54:12 net_54:13 0.0097
17 net_54:14 net_54:13 0.0030
18 net_54:15 net_54:14 0.0055
19 net_54:16 net_54:15 0.0030
20 net_54:16 net_54:17 0.0029
21 net_54:18 net_54:17 0.0050
*END

*D_NET n768gat 1.2742
*CONN
*I inst_17:ZN O
*P n768gat O
*CAP
1 n768gat 0.0138
2 inst_17:ZN 0.0341
3 n768gat:1 0.0424
4 n768gat:2 0.0181
5 n768gat:3 0.0181
6 n768gat:4 0.5023
7 n768gat:5 0.5023
8 n768gat:6 0.0327
9 n768gat:7 0.0327
10 n768gat:8 0.0180
11 n768gat:9 0.0187
12 n768gat:10 0.0197
13 n768gat:11 0.0214
*RES
2 inst_17:ZN n768gat:1 0.0041
3 n768gat:2 n768gat:1 0.0050
4 n768gat:2 n768gat:3 0.0010
5 n768gat:4 n768gat:3 0.0050
6 n768gat:4 n768gat:5 0.0430
7 n768gat:6 n768gat:5 0.0050
8 n768gat:7 n768gat:6 0.0010
9 n768gat:8 n768gat:7 0.0050
10 n768gat:8 n768gat:9 0.0011
11 n768gat:10 n768gat:9 0.0010
12 n768gat:11 n768gat 0.0010
13 n768gat:11 n768gat:10 0.0050
*END

*D_NET net_105 0.1085
*CONN
*I inst_190:ZN O
*I inst_155:A2 I
*CAP
1 inst_190:ZN 0.0176
2 inst_155:A2 0.0069
3 net_105:1 0.0153
4 net_105:2 0.0214
5 net_105:3 0.0214
6 net_105:4 0.0259
*RES
2 inst_155:A2 net_105:1 0.0010
3 net_105:2 net_105:1 0.0050
4 net_105:2 net_105:3 0.0010
5 net_105:4 inst_190:ZN 0.0021
6 net_105:4 net_105:3 0.0050
*END

*D_NET n419gat 1.2257
*CONN
*I inst_105:ZN O
*P n419gat O
*CAP
1 n419gat 0.0138
2 inst_105:ZN 0.0166
3 n419gat:1 0.0152
4 n419gat:2 0.3231
5 n419gat:3 0.3231
6 n419gat:4 0.2473
7 n419gat:5 0.2473
8 n419gat:6 0.0089
9 n419gat:7 0.0089
10 n419gat:8 0.0214
*RES
2 n419gat:1 inst_105:ZN 0.0050
3 n419gat:2 n419gat:1 0.0050
4 n419gat:2 n419gat:3 0.0250
5 n419gat:4 n419gat:3 0.0050
6 n419gat:5 n419gat:4 0.0082
7 n419gat:6 n419gat:5 0.0050
8 n419gat:6 n419gat:7 0.0010
9 n419gat:8 n419gat 0.0010
10 n419gat:8 n419gat:7 0.0050
*END

*D_NET net_129 0.1915
*CONN
*I inst_31:ZN O
*I inst_158:A2 I
*I inst_168:A1 I
*CAP
1 inst_31:ZN 0.0234
2 inst_158:A2 0.0068
3 inst_168:A1 0.0166
4 net_129:1 0.0502
5 net_129:2 0.0525
6 net_129:3 0.0221
7 net_129:4 0.0199
*RES
2 inst_31:ZN inst_158:A2 0.0010
3 inst_168:A1 net_129:4 0.0050
4 net_129:1 inst_31:ZN 0.0050
5 net_129:1 net_129:2 0.0035
6 net_129:3 net_129:2 0.0010
7 net_129:3 net_129:4 0.0020
*END

*D_NET net_119 0.4674
*CONN
*I inst_55:ZN O
*I inst_188:A I
*I inst_39:A2 I
*I inst_59:A1 I
*CAP
1 inst_55:ZN 0.0332
2 inst_188:A 0.0166
3 inst_39:A2 0.0166
4 inst_59:A1 0.0166
5 net_119:1 0.0195
6 net_119:2 0.0195
7 net_119:3 0.0511
8 net_119:4 0.1020
9 net_119:5 0.0152
10 net_119:6 0.0175
11 net_119:7 0.0320
12 net_119:8 0.0297
13 net_119:9 0.0197
14 net_119:10 0.0197
15 net_119:11 0.0585
*RES
2 inst_55:ZN net_119:6 0.0050
3 net_119:1 inst_188:A 0.0050
4 net_119:2 net_119:1 0.0015
5 net_119:3 net_119:2 0.0050
6 net_119:4 net_119:3 0.0027
7 net_119:4 net_119:5 0.0050
8 net_119:5 inst_55:ZN 0.0050
9 net_119:7 net_119:6 0.0010
10 net_119:7 net_119:8 0.0030
11 net_119:8 inst_39:A2 0.0050
12 net_119:9 inst_59:A1 0.0050
13 net_119:9 net_119:10 0.0010
14 net_119:11 net_119:4 0.0027
15 net_119:11 net_119:10 0.0050
*END

*D_NET net_98 0.5166
*CONN
*I inst_54:ZN O
*I inst_187:A I
*I inst_59:A2 I
*CAP
1 inst_54:ZN 0.0332
2 inst_187:A 0.0074
3 inst_59:A2 0.0166
4 net_98:1 0.0157
5 net_98:2 0.0182
6 net_98:3 0.0182
7 net_98:4 0.0317
8 net_98:5 0.0317
9 net_98:6 0.0758
10 net_98:7 0.0758
11 net_98:8 0.0158
12 net_98:9 0.0158
13 net_98:10 0.0411
14 net_98:11 0.0411
15 net_98:12 0.0391
16 net_98:13 0.0391
*RES
2 inst_54:ZN net_98:7 0.0050
3 inst_59:A2 net_98:13 0.0050
4 net_98:1 inst_187:A 0.0010
5 net_98:2 net_98:1 0.0050
6 net_98:3 net_98:2 0.0010
7 net_98:4 net_98:3 0.0050
8 net_98:5 net_98:4 0.0014
9 net_98:6 net_98:5 0.0050
10 net_98:7 net_98:6 0.0075
11 net_98:8 inst_54:ZN 0.0050
12 net_98:9 net_98:8 0.0010
13 net_98:10 net_98:9 0.0050
14 net_98:10 net_98:11 0.0027
15 net_98:12 net_98:11 0.0050
16 net_98:13 net_98:12 0.0040
*END

*D_NET net_12 0.1603
*CONN
*I inst_95:ZN O
*I inst_62:A3 I
*CAP
1 inst_95:ZN 0.0440
2 inst_62:A3 0.0166
3 net_12:1 0.0236
4 net_12:2 0.0236
5 net_12:3 0.0523
*RES
2 inst_95:ZN net_12:3 0.0062
3 net_12:1 inst_62:A3 0.0050
4 net_12:1 net_12:2 0.0015
5 net_12:3 net_12:2 0.0050
*END

*D_NET net_151 0.6159
*CONN
*I inst_214:ZN O
*I inst_47:A2 I
*I inst_163:A1 I
*CAP
1 inst_214:ZN 0.0166
2 inst_47:A2 0.0166
3 inst_163:A1 0.0166
4 net_151:1 0.0152
5 net_151:2 0.0097
6 net_151:3 0.0448
7 net_151:4 0.0428
8 net_151:5 0.0378
9 net_151:6 0.0378
10 net_151:7 0.0152
11 net_151:8 0.0187
12 net_151:9 0.0187
13 net_151:10 0.1628
14 net_151:11 0.1628
*RES
2 net_151:1 inst_47:A2 0.0050
3 net_151:2 net_151:1 0.0050
4 net_151:2 net_151:3 0.0010
5 net_151:3 net_151:4 0.0039
6 net_151:4 net_151:5 0.0050
7 net_151:6 inst_163:A1 0.0050
8 net_151:6 net_151:5 0.0030
9 net_151:7 inst_214:ZN 0.0050
10 net_151:8 net_151:7 0.0050
11 net_151:8 net_151:9 0.0010
12 net_151:10 net_151:9 0.0050
13 net_151:11 net_151:3 0.0050
14 net_151:11 net_151:10 0.0040
*END

*D_NET net_53 0.1847
*CONN
*I inst_213:ZN O
*I inst_193:A4 I
*CAP
1 inst_213:ZN 0.0166
2 inst_193:A4 0.0166
3 net_53:1 0.0214
4 net_53:2 0.0214
5 net_53:3 0.0468
6 net_53:4 0.0468
7 net_53:5 0.0152
*RES
2 inst_213:ZN net_53:5 0.0050
3 net_53:1 inst_193:A4 0.0050
4 net_53:1 net_53:2 0.0010
5 net_53:3 net_53:2 0.0050
6 net_53:3 net_53:4 0.0020
7 net_53:5 net_53:4 0.0050
*END

*D_NET net_93 0.1904
*CONN
*I inst_142:ZN O
*I inst_80:A3 I
*CAP
1 inst_142:ZN 0.0166
2 inst_80:A3 0.0081
3 net_93:1 0.0164
4 net_93:2 0.0207
5 net_93:3 0.0207
6 net_93:4 0.0296
7 net_93:5 0.0296
8 net_93:6 0.0243
9 net_93:7 0.0243
*RES
2 inst_142:ZN net_93:7 0.0050
3 net_93:1 inst_80:A3 0.0010
4 net_93:2 net_93:1 0.0050
5 net_93:3 net_93:2 0.0010
6 net_93:4 net_93:3 0.0050
7 net_93:5 net_93:4 0.0034
8 net_93:6 net_93:5 0.0050
9 net_93:7 net_93:6 0.0015
*END

*D_NET net_168 0.2247
*CONN
*I inst_21:ZN O
*I inst_170:A2 I
*CAP
1 inst_21:ZN 0.0166
2 inst_170:A2 0.0166
3 net_168:1 0.0177
4 net_168:2 0.0200
5 net_168:3 0.0780
6 net_168:4 0.0757
*RES
2 inst_170:A2 net_168:4 0.0050
3 net_168:1 inst_21:ZN 0.0050
4 net_168:1 net_168:2 0.0010
5 net_168:3 net_168:2 0.0010
6 net_168:3 net_168:4 0.0055
*END

*D_NET net_127 0.1054
*CONN
*I inst_156:ZN O
*I inst_198:A1 I
*CAP
1 inst_156:ZN 0.0238
2 inst_198:A1 0.0209
3 net_127:1 0.0290
4 net_127:2 0.0318
*RES
2 inst_156:ZN net_127:2 0.0031
3 net_127:1 inst_198:A1 0.0030
4 net_127:1 net_127:2 0.0010
*END

*D_NET net_76 0.7238
*CONN
*I inst_128:ZN O
*I inst_70:A1 I
*CAP
1 inst_128:ZN 0.0166
2 inst_70:A1 0.0166
3 net_76:1 0.1327
4 net_76:2 0.1289
5 net_76:3 0.0118
6 net_76:4 0.0118
7 net_76:5 0.0537
8 net_76:6 0.0621
9 net_76:7 0.1079
10 net_76:8 0.0995
11 net_76:9 0.0158
12 net_76:10 0.0158
13 net_76:11 0.0252
14 net_76:12 0.0252
*RES
2 inst_70:A1 net_76:12 0.0050
3 net_76:1 inst_128:ZN 0.0050
4 net_76:1 net_76:2 0.0140
5 net_76:3 net_76:2 0.0050
6 net_76:3 net_76:4 0.0010
7 net_76:5 net_76:4 0.0050
8 net_76:5 net_76:6 0.0021
9 net_76:7 net_76:6 0.0010
10 net_76:7 net_76:8 0.0032
11 net_76:9 net_76:8 0.0050
12 net_76:10 net_76:9 0.0010
13 net_76:11 net_76:10 0.0050
14 net_76:11 net_76:12 0.0015
*END

*D_NET net_101 0.5124
*CONN
*I inst_148:ZN O
*I inst_76:A3 I
*CAP
1 inst_148:ZN 0.0140
2 inst_76:A3 0.0251
3 net_101:1 0.0223
4 net_101:2 0.0226
5 net_101:3 0.0226
6 net_101:4 0.1522
7 net_101:5 0.1522
8 net_101:6 0.0341
9 net_101:7 0.0341
10 net_101:8 0.0334
*RES
2 inst_148:ZN net_101:1 0.0020
3 net_101:2 net_101:1 0.0050
4 net_101:3 net_101:2 0.0015
5 net_101:4 net_101:3 0.0050
6 net_101:4 net_101:5 0.0115
7 net_101:6 net_101:5 0.0050
8 net_101:6 net_101:7 0.0030
9 net_101:8 inst_76:A3 0.0031
10 net_101:8 net_101:7 0.0050
*END

*D_NET net_187 0.1722
*CONN
*I inst_177:ZN O
*I inst_178:A2 I
*CAP
1 inst_177:ZN 0.0166
2 inst_178:A2 0.0166
3 net_187:1 0.0336
4 net_187:2 0.0336
5 net_187:3 0.0193
6 net_187:4 0.0193
7 net_187:5 0.0166
8 net_187:6 0.0166
*RES
2 inst_178:A2 net_187:6 0.0050
3 net_187:1 inst_177:ZN 0.0050
4 net_187:1 net_187:2 0.0020
5 net_187:3 net_187:2 0.0050
6 net_187:4 net_187:3 0.0014
7 net_187:5 net_187:4 0.0050
8 net_187:5 net_187:6 0.0010
*END

*D_NET net_111 0.5792
*CONN
*I inst_135:ZN O
*I inst_151:A1 I
*I inst_36:A2 I
*I inst_178:A1 I
*CAP
1 inst_135:ZN 0.0166
2 inst_151:A1 0.0166
3 inst_36:A2 0.0166
4 inst_178:A1 0.0166
5 net_111:1 0.0451
6 net_111:2 0.0451
7 net_111:3 0.0495
8 net_111:4 0.0595
9 net_111:5 0.0463
10 net_111:6 0.0152
11 net_111:7 0.0177
12 net_111:8 0.0177
13 net_111:9 0.0363
14 net_111:10 0.0920
15 net_111:11 0.0883
*RES
2 net_111:1 inst_151:A1 0.0050
3 net_111:1 net_111:2 0.0030
4 net_111:3 net_111:2 0.0050
5 net_111:3 net_111:9 0.0027
6 net_111:4 net_111:3 0.0014
7 net_111:5 net_111:4 0.0041
8 net_111:5 net_111:6 0.0050
9 net_111:6 inst_36:A2 0.0050
10 net_111:7 inst_178:A1 0.0050
11 net_111:7 net_111:8 0.0010
12 net_111:9 net_111:8 0.0050
13 net_111:10 inst_135:ZN 0.0050
14 net_111:11 net_111:4 0.0050
15 net_111:11 net_111:10 0.0095
*END

*D_NET net_90 1.4976
*CONN
*I inst_73:ZN O
*I inst_137:A2 I
*I inst_139:A2 I
*I inst_55:A2 I
*CAP
1 inst_73:ZN 0.0081
2 inst_137:A2 0.0166
3 inst_139:A2 0.0166
4 inst_55:A2 0.0166
5 net_90:1 0.1335
6 net_90:2 0.0615
7 net_90:3 0.0294
8 net_90:4 0.0294
9 net_90:5 0.3556
10 net_90:6 0.3556
11 net_90:7 0.0475
12 net_90:8 0.0328
13 net_90:9 0.0302
14 net_90:10 0.0302
15 net_90:11 0.0182
16 net_90:12 0.0182
17 net_90:13 0.0224
18 net_90:14 0.0164
19 net_90:15 0.0872
20 net_90:16 0.0895
21 net_90:17 0.0819
*RES
2 net_90:1 inst_137:A2 0.0050
3 net_90:1 net_90:17 0.0100
4 net_90:2 net_90:1 0.0050
5 net_90:2 net_90:3 0.0050
6 net_90:3 net_90:4 0.0018
7 net_90:4 net_90:5 0.0050
8 net_90:6 net_90:5 0.0107
9 net_90:6 net_90:7 0.0050
10 net_90:7 net_90:13 0.0010
11 net_90:8 net_90:7 0.0011
12 net_90:8 net_90:9 0.0050
13 net_90:10 inst_55:A2 0.0050
14 net_90:10 net_90:9 0.0015
15 net_90:11 inst_139:A2 0.0050
16 net_90:12 net_90:11 0.0010
17 net_90:13 net_90:12 0.0050
18 net_90:14 inst_73:ZN 0.0010
19 net_90:15 net_90:14 0.0050
20 net_90:16 net_90:15 0.0080
21 net_90:17 net_90:16 0.0010
*END

*D_NET n26gat 1.0606
*CONN
*P n26gat I
*I inst_87:A2 I
*CAP
1 n26gat 0.0130
2 inst_87:A2 0.0166
3 n26gat:1 0.0206
4 n26gat:2 0.0211
5 n26gat:3 0.2114
6 n26gat:4 0.2055
7 n26gat:5 0.2492
8 n26gat:6 0.2492
9 n26gat:7 0.0170
10 n26gat:8 0.0208
11 n26gat:9 0.0181
12 n26gat:10 0.0181
*RES
2 n26gat n26gat:1 0.0010
3 inst_87:A2 n26gat:10 0.0050
4 n26gat:2 n26gat:1 0.0050
5 n26gat:3 n26gat:2 0.0010
6 n26gat:3 n26gat:4 0.0186
7 n26gat:5 n26gat:4 0.0050
8 n26gat:6 n26gat:5 0.0084
9 n26gat:7 n26gat:6 0.0050
10 n26gat:7 n26gat:8 0.0010
11 n26gat:9 n26gat:8 0.0050
12 n26gat:10 n26gat:9 0.0015
*END

*D_NET net_100 0.9883
*CONN
*I inst_75:ZN O
*I inst_31:A2 I
*I inst_147:A2 I
*I inst_148:A2 I
*CAP
1 inst_75:ZN 0.0166
2 inst_31:A2 0.0166
3 inst_147:A2 0.0166
4 inst_148:A2 0.0166
5 net_100:1 0.0384
6 net_100:2 0.0479
7 net_100:3 0.0707
8 net_100:4 0.0207
9 net_100:5 0.0201
10 net_100:6 0.0201
11 net_100:7 0.2967
12 net_100:8 0.2967
13 net_100:9 0.0141
14 net_100:10 0.0141
15 net_100:11 0.0209
16 net_100:12 0.0614
*RES
2 net_100:1 inst_147:A2 0.0050
3 net_100:1 net_100:2 0.0035
4 net_100:2 inst_31:A2 0.0050
5 net_100:2 net_100:11 0.0010
6 net_100:3 inst_148:A2 0.0050
7 net_100:3 net_100:12 0.0080
8 net_100:4 net_100:3 0.0010
9 net_100:4 net_100:5 0.0050
10 net_100:5 net_100:6 0.0013
11 net_100:6 net_100:7 0.0050
12 net_100:8 net_100:7 0.0103
13 net_100:8 net_100:9 0.0050
14 net_100:10 net_100:9 0.0010
15 net_100:10 net_100:11 0.0050
16 net_100:12 inst_75:ZN 0.0050
*END

*D_NET net_85 0.8736
*CONN
*I inst_114:ZN O
*I inst_72:A2 I
*I inst_73:A2 I
*I inst_74:A3 I
*I inst_75:A3 I
*CAP
1 inst_114:ZN 0.0076
2 inst_72:A2 0.0166
3 inst_73:A2 0.0166
4 inst_74:A3 0.0228
5 inst_75:A3 0.0072
6 net_85:1 0.0178
7 net_85:2 0.0178
8 net_85:3 0.0119
9 net_85:4 0.0346
10 net_85:5 0.0894
11 net_85:6 0.0894
12 net_85:7 0.0173
13 net_85:8 0.0173
14 net_85:9 0.0575
15 net_85:10 0.0537
16 net_85:11 0.0236
17 net_85:12 0.0236
18 net_85:13 0.0152
19 net_85:14 0.0311
20 net_85:15 0.0518
21 net_85:16 0.0446
22 net_85:17 0.0152
23 net_85:18 0.0303
24 net_85:19 0.0159
25 net_85:20 0.0724
26 net_85:21 0.0724
*RES
2 inst_114:ZN net_85:19 0.0010
3 inst_74:A3 net_85:14 0.0031
4 net_85:1 inst_72:A2 0.0050
5 net_85:2 net_85:1 0.0010
6 net_85:3 net_85:2 0.0050
7 net_85:3 net_85:4 0.0010
8 net_85:4 net_85:18 0.0016
9 net_85:4 net_85:5 0.0050
10 net_85:5 net_85:6 0.0019
11 net_85:6 net_85:7 0.0050
12 net_85:8 net_85:7 0.0010
13 net_85:8 net_85:9 0.0050
14 net_85:9 net_85:10 0.0060
15 net_85:10 inst_73:A2 0.0050
16 net_85:10 net_85:11 0.0050
17 net_85:12 net_85:11 0.0014
18 net_85:12 net_85:13 0.0050
19 net_85:13 net_85:14 0.0050
20 net_85:15 inst_75:A3 0.0010
21 net_85:16 net_85:15 0.0052
22 net_85:16 net_85:17 0.0050
23 net_85:17 net_85:18 0.0050
24 net_85:20 net_85:19 0.0050
25 net_85:20 net_85:21 0.0045
26 net_85:21 net_85:15 0.0050
*END

*D_NET net_124 0.4343
*CONN
*I inst_189:ZN O
*I inst_154:A2 I
*I inst_174:A1 I
*CAP
1 inst_189:ZN 0.0099
2 inst_154:A2 0.0166
3 inst_174:A1 0.0166
4 net_124:1 0.0152
5 net_124:2 0.0208
6 net_124:3 0.0310
7 net_124:4 0.1050
8 net_124:5 0.1073
9 net_124:6 0.0175
10 net_124:7 0.0182
11 net_124:8 0.0292
12 net_124:9 0.0292
13 net_124:10 0.0179
*RES
2 net_124:1 inst_174:A1 0.0050
3 net_124:2 net_124:1 0.0050
4 net_124:2 net_124:3 0.0014
5 net_124:3 net_124:10 0.0014
6 net_124:3 net_124:4 0.0050
7 net_124:5 net_124:4 0.0070
8 net_124:6 inst_154:A2 0.0050
9 net_124:6 net_124:5 0.0010
10 net_124:7 inst_189:ZN 0.0010
11 net_124:8 net_124:7 0.0050
12 net_124:9 net_124:8 0.0020
13 net_124:10 net_124:9 0.0050
*END

*D_NET net_160 0.0143
*CONN
*I inst_164:ZN O
*I inst_166:A2 I
*CAP
1 inst_164:ZN 0.0072
2 inst_166:A2 0.0072
*RES
2 inst_164:ZN inst_166:A2 0.0010
*END

*D_NET net_115 0.1696
*CONN
*I inst_37:ZN O
*I inst_69:A3 I
*CAP
1 inst_37:ZN 0.0166
2 inst_69:A3 0.0166
3 net_115:1 0.0152
4 net_115:2 0.0530
5 net_115:3 0.0530
6 net_115:4 0.0152
*RES
2 inst_69:A3 net_115:4 0.0050
3 net_115:1 inst_37:ZN 0.0050
4 net_115:2 net_115:1 0.0050
5 net_115:3 net_115:2 0.0061
6 net_115:4 net_115:3 0.0050
*END

*D_NET n878gat 0.9316
*CONN
*I inst_79:ZN O
*P n878gat O
*CAP
1 n878gat 0.0138
2 inst_79:ZN 0.0312
3 n878gat:1 0.0395
4 n878gat:2 0.1580
5 n878gat:3 0.1580
6 n878gat:4 0.2414
7 n878gat:5 0.2473
8 n878gat:6 0.0211
9 n878gat:7 0.0214
*RES
2 inst_79:ZN n878gat:1 0.0031
3 n878gat:2 n878gat:1 0.0050
4 n878gat:2 n878gat:3 0.0130
5 n878gat:4 n878gat:3 0.0050
6 n878gat:4 n878gat:5 0.0244
7 n878gat:5 n878gat:6 0.0010
8 n878gat:7 n878gat 0.0010
9 n878gat:7 n878gat:6 0.0050
*END

*D_NET net_4 0.3979
*CONN
*I inst_86:ZN O
*I inst_196:A3 I
*CAP
1 inst_86:ZN 0.0243
2 inst_196:A3 0.0166
3 net_4:1 0.0326
4 net_4:2 0.0244
5 net_4:3 0.0244
6 net_4:4 0.0880
7 net_4:5 0.0880
8 net_4:6 0.0498
9 net_4:7 0.0498
*RES
2 inst_86:ZN net_4:1 0.0052
3 inst_196:A3 net_4:7 0.0050
4 net_4:2 net_4:1 0.0050
5 net_4:3 net_4:2 0.0020
6 net_4:4 net_4:3 0.0050
7 net_4:4 net_4:5 0.0081
8 net_4:6 net_4:5 0.0050
9 net_4:7 net_4:6 0.0065
*END

*D_NET net_17 2.4148
*CONN
*I inst_87:ZN O
*I inst_185:A I
*I inst_52:A1 I
*CAP
1 inst_87:ZN 0.0166
2 inst_185:A 0.0166
3 inst_52:A1 0.0166
4 net_17:1 0.0320
5 net_17:2 0.0320
6 net_17:3 0.0642
7 net_17:4 0.1372
8 net_17:5 0.0319
9 net_17:6 0.0358
10 net_17:7 0.0240
11 net_17:8 0.0240
12 net_17:9 0.0653
13 net_17:10 0.0653
14 net_17:11 0.3606
15 net_17:12 0.3606
16 net_17:13 0.1989
17 net_17:14 0.1986
18 net_17:15 0.2919
19 net_17:16 0.2922
20 net_17:17 0.0349
21 net_17:18 0.0349
22 net_17:19 0.0806
*RES
2 net_17:1 inst_52:A1 0.0050
3 net_17:1 net_17:2 0.0020
4 net_17:3 net_17:2 0.0050
5 net_17:4 net_17:3 0.0088
6 net_17:4 net_17:5 0.0050
7 net_17:5 net_17:6 0.0025
8 net_17:6 inst_185:A 0.0050
9 net_17:7 inst_87:ZN 0.0050
10 net_17:8 net_17:7 0.0010
11 net_17:9 net_17:8 0.0050
12 net_17:10 net_17:9 0.0074
13 net_17:11 net_17:10 0.0050
14 net_17:12 net_17:11 0.0109
15 net_17:13 net_17:12 0.0050
16 net_17:13 net_17:14 0.0155
17 net_17:15 net_17:14 0.0010
18 net_17:15 net_17:16 0.0165
19 net_17:17 net_17:16 0.0050
20 net_17:17 net_17:18 0.0010
21 net_17:19 net_17:4 0.0114
22 net_17:19 net_17:18 0.0050
*END

*D_NET n51gat 3.6254
*CONN
*P n51gat I
*I inst_94:A1 I
*I inst_209:A1 I
*I inst_60:A1 I
*CAP
1 n51gat 0.0130
2 inst_94:A1 0.0166
3 inst_209:A1 0.0072
4 inst_60:A1 0.0166
5 n51gat:1 0.0182
6 n51gat:2 0.0182
7 n51gat:3 0.3938
8 n51gat:4 0.0462
9 n51gat:5 0.3624
10 n51gat:6 0.3624
11 n51gat:7 0.0224
12 n51gat:8 0.0224
13 n51gat:9 0.0626
14 n51gat:10 0.0941
15 n51gat:11 0.0155
16 n51gat:12 0.0173
17 n51gat:13 0.0173
18 n51gat:14 0.0239
19 n51gat:15 0.0239
20 n51gat:16 0.0430
21 n51gat:17 0.0206
22 n51gat:18 0.0153
23 n51gat:19 0.0219
24 n51gat:20 0.0232
25 n51gat:21 0.0309
26 n51gat:22 0.0309
27 n51gat:23 0.3486
28 n51gat:24 0.3486
29 n51gat:25 0.4167
30 n51gat:26 0.4167
31 n51gat:27 0.3553
*RES
2 n51gat n51gat:17 0.0010
3 n51gat:1 inst_94:A1 0.0050
4 n51gat:1 n51gat:2 0.0010
5 n51gat:3 n51gat:2 0.0050
6 n51gat:3 n51gat:4 0.0024
7 n51gat:4 n51gat:5 0.0050
8 n51gat:6 n51gat:5 0.0097
9 n51gat:6 n51gat:7 0.0050
10 n51gat:7 n51gat:8 0.0024
11 n51gat:8 n51gat:9 0.0050
12 n51gat:10 inst_60:A1 0.0050
13 n51gat:10 n51gat:9 0.0050
14 n51gat:11 inst_209:A1 0.0010
15 n51gat:12 n51gat:11 0.0050
16 n51gat:12 n51gat:13 0.0010
17 n51gat:14 n51gat:13 0.0050
18 n51gat:15 n51gat:14 0.0014
19 n51gat:16 n51gat:10 0.0025
20 n51gat:16 n51gat:15 0.0050
21 n51gat:18 n51gat:17 0.0050
22 n51gat:19 n51gat:18 0.0010
23 n51gat:20 n51gat:19 0.0014
24 n51gat:21 n51gat:20 0.0050
25 n51gat:22 n51gat:21 0.0025
26 n51gat:23 n51gat:22 0.0050
27 n51gat:23 n51gat:24 0.0333
28 n51gat:25 n51gat:24 0.0050
29 n51gat:26 n51gat:25 0.0124
30 n51gat:27 n51gat:3 0.0196
31 n51gat:27 n51gat:26 0.0050
*END

*D_NET n865gat 2.2815
*CONN
*I inst_68:ZN O
*P n865gat O
*CAP
1 n865gat 0.0138
2 inst_68:ZN 0.0076
3 n865gat:1 0.0159
4 n865gat:2 0.0152
5 n865gat:3 0.0549
6 n865gat:4 0.0549
7 n865gat:5 0.3213
8 n865gat:6 0.3213
9 n865gat:7 0.6638
10 n865gat:8 0.6638
11 n865gat:9 0.0549
12 n865gat:10 0.0549
13 n865gat:11 0.0089
14 n865gat:12 0.0089
15 n865gat:13 0.0214
*RES
2 inst_68:ZN n865gat:1 0.0010
3 n865gat:2 n865gat:1 0.0050
4 n865gat:3 n865gat:2 0.0050
5 n865gat:3 n865gat:4 0.0091
6 n865gat:5 n865gat:4 0.0050
7 n865gat:5 n865gat:6 0.0067
8 n865gat:7 n865gat:6 0.0030
9 n865gat:7 n865gat:8 0.0269
10 n865gat:9 n865gat:8 0.0030
11 n865gat:10 n865gat:9 0.0011
12 n865gat:11 n865gat:10 0.0050
13 n865gat:11 n865gat:12 0.0010
14 n865gat:13 n865gat 0.0010
15 n865gat:13 n865gat:12 0.0050
*END

*D_NET n17gat 3.4299
*CONN
*P n17gat I
*I inst_182:A I
*I inst_95:A1 I
*I inst_97:A2 I
*I inst_60:A2 I
*I inst_107:A1 I
*CAP
1 n17gat 0.0152
2 inst_182:A 0.0244
3 inst_95:A1 0.0166
4 inst_97:A2 0.0072
5 inst_60:A2 0.0166
6 inst_107:A1 0.0166
7 n17gat:1 0.0327
8 n17gat:2 0.0213
9 n17gat:3 0.0213
10 n17gat:4 0.0713
11 n17gat:5 0.0713
12 n17gat:6 0.1027
13 n17gat:7 0.0770
14 n17gat:8 0.0561
15 n17gat:9 0.0561
16 n17gat:10 0.1101
17 n17gat:11 0.1119
18 n17gat:12 0.0325
19 n17gat:13 0.0325
20 n17gat:14 0.0208
21 n17gat:15 0.0208
22 n17gat:16 0.0155
23 n17gat:17 0.0132
24 n17gat:18 0.0533
25 n17gat:19 0.0206
26 n17gat:20 0.0535
27 n17gat:21 0.0535
28 n17gat:22 0.1242
29 n17gat:23 0.1242
30 n17gat:24 0.0150
31 n17gat:25 0.0150
32 n17gat:26 0.0207
33 n17gat:27 0.0464
34 n17gat:28 0.0365
35 n17gat:29 0.0397
36 n17gat:30 0.0184
37 n17gat:31 0.2975
38 n17gat:32 0.2975
39 n17gat:33 0.6029
40 n17gat:34 0.6029
41 n17gat:35 0.0441
*RES
2 inst_182:A n17gat:1 0.0031
3 inst_97:A2 n17gat:16 0.0010
4 n17gat:2 n17gat:1 0.0050
5 n17gat:2 n17gat:3 0.0010
6 n17gat:4 n17gat:3 0.0050
7 n17gat:4 n17gat:5 0.0027
8 n17gat:6 n17gat:5 0.0050
9 n17gat:6 n17gat:27 0.0020
10 n17gat:7 n17gat:6 0.0065
11 n17gat:7 n17gat:8 0.0050
12 n17gat:8 n17gat:9 0.0054
13 n17gat:9 n17gat:10 0.0050
14 n17gat:11 n17gat:10 0.0105
15 n17gat:11 n17gat:12 0.0050
16 n17gat:12 n17gat:13 0.0027
17 n17gat:13 n17gat:14 0.0050
18 n17gat:15 inst_60:A2 0.0050
19 n17gat:15 n17gat:14 0.0010
20 n17gat:17 n17gat:11 0.0010
21 n17gat:17 n17gat:16 0.0050
22 n17gat:18 inst_95:A1 0.0050
23 n17gat:18 n17gat:35 0.0055
24 n17gat:19 n17gat:18 0.0010
25 n17gat:19 n17gat:20 0.0050
26 n17gat:21 n17gat:20 0.0036
27 n17gat:21 n17gat:22 0.0050
28 n17gat:23 n17gat:22 0.0034
29 n17gat:23 n17gat:24 0.0050
30 n17gat:25 n17gat:24 0.0010
31 n17gat:25 n17gat:26 0.0050
32 n17gat:27 inst_107:A1 0.0050
33 n17gat:27 n17gat:26 0.0010
34 n17gat:28 n17gat 0.0050
35 n17gat:29 n17gat:28 0.0020
36 n17gat:30 n17gat:29 0.0012
37 n17gat:31 n17gat:30 0.0050
38 n17gat:32 n17gat:31 0.0101
39 n17gat:33 n17gat:32 0.0050
40 n17gat:34 n17gat:33 0.0484
41 n17gat:35 n17gat:34 0.0050
*END

*D_NET net_164 0.1663
*CONN
*I inst_167:ZN O
*I inst_195:A4 I
*CAP
1 inst_167:ZN 0.0187
2 inst_195:A4 0.0166
3 net_164:1 0.0519
4 net_164:2 0.0519
5 net_164:3 0.0271
*RES
2 net_164:1 inst_195:A4 0.0050
3 net_164:1 net_164:2 0.0030
4 net_164:3 inst_167:ZN 0.0021
5 net_164:3 net_164:2 0.0050
*END

*D_NET net_87 0.1997
*CONN
*I inst_136:ZN O
*I inst_68:A4 I
*CAP
1 inst_136:ZN 0.0166
2 inst_68:A4 0.0166
3 net_87:1 0.0219
4 net_87:2 0.0219
5 net_87:3 0.0462
6 net_87:4 0.0462
7 net_87:5 0.0152
8 net_87:6 0.0152
*RES
2 inst_136:ZN net_87:6 0.0050
3 net_87:1 inst_68:A4 0.0050
4 net_87:1 net_87:2 0.0015
5 net_87:3 net_87:2 0.0050
6 net_87:4 net_87:3 0.0027
7 net_87:5 net_87:4 0.0050
8 net_87:5 net_87:6 0.0010
*END

*D_NET net_0 0.1860
*CONN
*I inst_81:ZN O
*I inst_199:A3 I
*CAP
1 inst_81:ZN 0.0072
2 inst_199:A3 0.0166
3 net_0:1 0.0152
4 net_0:2 0.0561
5 net_0:3 0.0561
6 net_0:4 0.0152
7 net_0:5 0.0196
*RES
2 inst_81:ZN net_0:5 0.0010
3 net_0:1 inst_199:A3 0.0050
4 net_0:2 net_0:1 0.0050
5 net_0:3 net_0:2 0.0034
6 net_0:4 net_0:3 0.0050
7 net_0:5 net_0:4 0.0050
*END

*D_NET net_35 0.1636
*CONN
*I inst_104:ZN O
*I inst_60:A4 I
*CAP
1 inst_104:ZN 0.0178
2 inst_60:A4 0.0081
3 net_35:1 0.0164
4 net_35:2 0.0457
5 net_35:3 0.0495
6 net_35:4 0.0261
*RES
2 net_35:1 inst_60:A4 0.0010
3 net_35:2 net_35:1 0.0050
4 net_35:3 net_35:2 0.0040
5 net_35:4 inst_104:ZN 0.0021
6 net_35:4 net_35:3 0.0050
*END

*D_NET n87gat 0.5169
*CONN
*P n87gat I
*I inst_28:A1 I
*CAP
1 n87gat 0.1210
2 inst_28:A1 0.0166
3 n87gat:1 0.1296
4 n87gat:2 0.1253
5 n87gat:3 0.1243
*RES
2 n87gat n87gat:1 0.0111
3 inst_28:A1 n87gat:3 0.0050
4 n87gat:1 n87gat:2 0.0010
5 n87gat:2 n87gat:3 0.0100
*END

*D_NET net_16 0.1827
*CONN
*I inst_84:ZN O
*I inst_184:A I
*I inst_51:A1 I
*CAP
1 inst_84:ZN 0.0477
2 inst_184:A 0.0222
3 inst_51:A1 0.0166
4 net_16:1 0.0312
5 net_16:2 0.0312
6 net_16:3 0.0337
*RES
2 inst_84:ZN net_16:3 0.0031
3 inst_184:A inst_84:ZN 0.0031
4 net_16:1 inst_51:A1 0.0050
5 net_16:2 net_16:1 0.0014
6 net_16:3 net_16:2 0.0050
*END

*D_NET n74gat 1.0375
*CONN
*P n74gat I
*I inst_204:A1 I
*CAP
1 n74gat 0.1853
2 inst_204:A1 0.0166
3 n74gat:1 0.1967
4 n74gat:2 0.0104
5 n74gat:3 0.0104
6 n74gat:4 0.0419
7 n74gat:5 0.0419
8 n74gat:6 0.2502
9 n74gat:7 0.2502
10 n74gat:8 0.0169
11 n74gat:9 0.0169
*RES
2 n74gat n74gat:1 0.0196
3 inst_204:A1 n74gat:9 0.0050
4 n74gat:2 n74gat:1 0.0050
5 n74gat:2 n74gat:3 0.0010
6 n74gat:4 n74gat:3 0.0050
7 n74gat:4 n74gat:5 0.0010
8 n74gat:6 n74gat:5 0.0050
9 n74gat:6 n74gat:7 0.0103
10 n74gat:8 n74gat:7 0.0050
11 n74gat:9 n74gat:8 0.0010
*END

*D_NET net_193 0.3294
*CONN
*I inst_200:ZN O
*I inst_79:A1 I
*CAP
1 inst_200:ZN 0.0166
2 inst_79:A1 0.0166
3 net_193:1 0.0531
4 net_193:2 0.0554
5 net_193:3 0.0949
6 net_193:4 0.0926
*RES
2 inst_79:A1 net_193:4 0.0050
3 net_193:1 inst_200:ZN 0.0050
4 net_193:1 net_193:2 0.0040
5 net_193:3 net_193:2 0.0010
6 net_193:3 net_193:4 0.0060
*END

*D_NET net_157 0.1918
*CONN
*I inst_49:ZN O
*I inst_199:A2 I
*CAP
1 inst_49:ZN 0.0143
2 inst_199:A2 0.0166
3 net_157:1 0.0226
4 net_157:2 0.0152
5 net_157:3 0.0539
6 net_157:4 0.0539
7 net_157:5 0.0152
*RES
2 inst_199:A2 net_157:5 0.0050
3 net_157:1 inst_49:ZN 0.0021
4 net_157:2 net_157:1 0.0050
5 net_157:3 net_157:2 0.0050
6 net_157:4 net_157:3 0.0034
7 net_157:5 net_157:4 0.0050
*END

*D_NET n260gat 0.5276
*CONN
*P n260gat I
*I inst_83:A2 I
*CAP
1 n260gat 0.0130
2 inst_83:A2 0.0072
3 n260gat:1 0.0206
4 n260gat:2 0.0197
5 n260gat:3 0.2016
6 n260gat:4 0.2009
7 n260gat:5 0.0227
8 n260gat:6 0.0265
9 n260gat:7 0.0155
*RES
2 n260gat n260gat:1 0.0010
3 n260gat:2 n260gat:1 0.0050
4 n260gat:2 n260gat:3 0.0010
5 n260gat:3 n260gat:4 0.0176
6 n260gat:5 n260gat:4 0.0050
7 n260gat:5 n260gat:6 0.0015
8 n260gat:7 inst_83:A2 0.0010
9 n260gat:7 n260gat:6 0.0050
*END

*D_NET net_42 0.5708
*CONN
*I inst_52:ZN O
*I inst_105:A2 I
*I inst_106:A2 I
*CAP
1 inst_52:ZN 0.0143
2 inst_105:A2 0.0166
3 inst_106:A2 0.0069
4 net_42:1 0.0153
5 net_42:2 0.0184
6 net_42:3 0.0184
7 net_42:4 0.0873
8 net_42:5 0.1994
9 net_42:6 0.0182
10 net_42:7 0.0182
11 net_42:8 0.0226
12 net_42:9 0.0152
13 net_42:10 0.1197
*RES
2 inst_52:ZN net_42:8 0.0021
3 net_42:1 inst_106:A2 0.0010
4 net_42:2 net_42:1 0.0050
5 net_42:2 net_42:3 0.0010
6 net_42:4 net_42:3 0.0050
7 net_42:5 net_42:4 0.0034
8 net_42:5 net_42:6 0.0050
9 net_42:7 inst_105:A2 0.0050
10 net_42:7 net_42:6 0.0010
11 net_42:9 net_42:8 0.0050
12 net_42:10 net_42:5 0.0102
13 net_42:10 net_42:9 0.0050
*END

*D_NET net_120 0.1346
*CONN
*I inst_39:ZN O
*I inst_66:A3 I
*CAP
1 inst_39:ZN 0.0166
2 inst_66:A3 0.0166
3 net_120:1 0.0507
4 net_120:2 0.0507
*RES
2 inst_66:A3 net_120:2 0.0050
3 net_120:1 inst_39:ZN 0.0050
4 net_120:1 net_120:2 0.0055
*END

*D_NET net_109 0.1243
*CONN
*I inst_35:ZN O
*I inst_201:A1 I
*CAP
1 inst_35:ZN 0.0072
2 inst_201:A1 0.0166
3 net_109:1 0.0155
4 net_109:2 0.0406
5 net_109:3 0.0444
*RES
2 inst_35:ZN net_109:1 0.0010
3 inst_201:A1 net_109:3 0.0050
4 net_109:2 net_109:1 0.0050
5 net_109:3 net_109:2 0.0045
*END

*D_NET net_80 0.2235
*CONN
*I inst_132:ZN O
*I inst_80:A2 I
*CAP
1 inst_132:ZN 0.0222
2 inst_80:A2 0.0166
3 net_80:1 0.0152
4 net_80:2 0.0331
5 net_80:3 0.0331
6 net_80:4 0.0364
7 net_80:5 0.0364
8 net_80:6 0.0305
*RES
2 inst_132:ZN net_80:6 0.0021
3 net_80:1 inst_80:A2 0.0050