*SPEF "IEEE 1481-1998"
*DESIGN "changes"
*DATE "Tue Dec 02 20:47:12 2014"
*VENDOR "TAU 2015 Contest"
*PROGRAM "Benchmark Parasitic Generator"
*VERSION "0.0"
*DESIGN_FLOW "NETLIST_TYPE_VERILOG"
*DIVIDER /
*DELIMITER :
*BUS_DELIMITER [ ]
*T_UNIT 1 PS
*C_UNIT 1 FF
*R_UNIT 1 KOHM
*L_UNIT 1 UH

*D_NET net_47 1.7439
*CONN
*I inst_14:ZN O
*I inst_17:A I
*CAP
1 inst_14:ZN 0.2611
2 net_47:1 0.4098
3 net_47:2 0.5009
4 net_47:3 0.2843
5 inst_17:A 0.2878
*RES
2 inst_14:ZN net_47:1 0.1659
3 net_47:1 net_47:2 0.2742
4 net_47:2 net_47:3 0.3494
5 net_47:3 inst_17:A 0.1485
*END

*D_NET net_176 1.3760
*CONN
*I inst_172:ZN O
*I inst_69:A4 I
*CAP
1 inst_172:ZN 0.2110
2 net_176:1 0.3070
3 net_176:2 0.3583
4 net_176:3 0.1395
5 net_176:4 0.0646
6 net_176:5 0.0794
7 inst_69:A4 0.2161
*RES
2 inst_172:ZN net_176:1 0.1614
3 net_176:1 net_176:2 0.3312
4 net_176:2 net_176:3 0.3755
5 net_176:3 net_176:4 0.4644
6 net_176:4 net_176:5 0.4559
7 net_176:5 inst_69:A4 0.4050
*END

*D_NET n159gat 4.8652
*CONN
*P n159gat I
*I inst_135:A1 I
*I inst_133:A1 I
*I inst_29:A1 I
*I inst_3:A I
*CAP
1 n159gat 0.1670
2 n159gat:1 0.2440
3 n159gat:2 0.0332
4 inst_135:A1 0.0406
5 n159gat:3 0.3706
6 n159gat:4 0.0740
7 n159gat:5 0.4871
8 inst_133:A1 0.4951
9 n159gat:6 0.3356
10 n159gat:7 0.3995
11 n159gat:8 0.3845
12 n159gat:9 0.4708
13 n159gat:10 0.3056
14 inst_29:A1 0.3464
15 n159gat:11 0.3276
16 inst_3:A 0.3833
*RES
2 n159gat n159gat:1 0.2732
3 n159gat:1 n159gat:2 0.0073
4 n159gat:2 inst_135:A1 0.1308
5 n159gat:1 n159gat:3 0.4125
6 n159gat:3 n159gat:4 0.0565
7 n159gat:4 n159gat:5 0.1285
8 n159gat:5 inst_133:A1 0.0292
9 n159gat:3 n159gat:6 0.0305
10 n159gat:6 n159gat:7 0.2383
11 n159gat:7 n159gat:8 0.4020
12 n159gat:8 n159gat:9 0.2529
13 n159gat:9 n159gat:10 0.2665
14 n159gat:10 inst_29:A1 0.4354
15 n159gat:4 n159gat:11 0.3292
16 n159gat:11 inst_3:A 0.0716
*END

*D_NET net_137 1.3846
*CONN
*I inst_42:ZN O
*I inst_198:A2 I
*CAP
1 inst_42:ZN 0.1922
2 net_137:1 0.1322
3 net_137:2 0.1905
4 net_137:3 0.4017
5 inst_198:A2 0.4680
*RES
2 inst_42:ZN net_137:1 0.2976
3 net_137:1 net_137:2 0.2331
4 net_137:2 net_137:3 0.2927
5 net_137:3 inst_198:A2 0.3943
*END

*D_NET net_54 1.8870
*CONN
*I inst_71:ZN O
*I inst_27:A3 I
*I inst_53:A2 I
*CAP
1 inst_71:ZN 0.1955
2 net_54:1 0.4889
3 net_54:2 0.0703
4 inst_27:A3 0.3298
5 net_54:3 0.3990
6 inst_53:A2 0.4035
*RES
2 inst_71:ZN net_54:1 0.4131
3 net_54:1 net_54:2 0.3310
4 net_54:2 inst_27:A3 0.2621
5 net_54:1 net_54:3 0.0219
6 net_54:3 inst_53:A2 0.0830
*END

*D_NET net_132 3.2416
*CONN
*I inst_59:ZN O
*I inst_160:A2 I
*I inst_163:A2 I
*CAP
1 inst_59:ZN 0.1250
2 net_132:1 0.4976
3 net_132:2 0.3591
4 net_132:3 0.2780
5 net_132:4 0.2022
6 inst_163:A2 0.1593
7 net_132:5 0.0632
8 net_132:6 0.2503
9 net_132:7 0.4700
10 net_132:8 0.3789
11 net_132:9 0.3545
12 inst_160:A2 0.1033
*RES
2 inst_59:ZN net_132:1 0.4382
3 net_132:1 net_132:2 0.3498
4 net_132:2 net_132:3 0.4055
5 net_132:3 net_132:4 0.4519
6 net_132:4 inst_163:A2 0.4658
7 net_132:4 net_132:5 0.4316
8 net_132:5 net_132:6 0.1782
9 net_132:6 net_132:7 0.4734
10 net_132:7 net_132:8 0.0376
11 net_132:8 net_132:9 0.0972
12 net_132:9 inst_160:A2 0.3594
*END

*D_NET n768gat 1.4515
*CONN
*I inst_17:ZN O
*P n768gat O
*CAP
1 inst_17:ZN 0.3248
2 n768gat:1 0.1267
3 n768gat:2 0.3840
4 n768gat:3 0.2434
5 n768gat 0.3726
*RES
2 inst_17:ZN n768gat:1 0.2980
3 n768gat:1 n768gat:2 0.2454
4 n768gat:2 n768gat:3 0.4670
5 n768gat:3 n768gat 0.1921
*END

*D_NET net_105 2.5582
*CONN
*I inst_57:ZN O
*I inst_155:A2 I
*I inst_37:A2 I
*I inst_58:A1 I
*CAP
1 inst_57:ZN 0.4443
2 net_105:1 0.3022
3 net_105:2 0.1405
4 inst_155:A2 0.0668
5 net_105:3 0.0282
6 net_105:4 0.3089
7 net_105:5 0.0253
8 net_105:6 0.3105
9 inst_37:A2 0.1881
10 net_105:7 0.3854
11 inst_58:A1 0.3580
*RES
2 inst_57:ZN net_105:1 0.3699
3 net_105:1 net_105:2 0.4131
4 net_105:2 inst_155:A2 0.4004
5 net_105:1 net_105:3 0.2034
6 net_105:3 net_105:4 0.1592
7 net_105:4 net_105:5 0.3147
8 net_105:5 net_105:6 0.2761
9 net_105:6 inst_37:A2 0.3643
10 net_105:3 net_105:7 0.3774
11 net_105:7 inst_58:A1 0.2731
*END

*D_NET n419gat 1.1096
*CONN
*I inst_105:ZN O
*P n419gat O
*CAP
1 inst_105:ZN 0.0518
2 n419gat:1 0.2154
3 n419gat:2 0.4921
4 n419gat:3 0.1648
5 n419gat 0.1855
*RES
2 inst_105:ZN n419gat:1 0.0112
3 n419gat:1 n419gat:2 0.3530
4 n419gat:2 n419gat:3 0.1128
5 n419gat:3 n419gat 0.2239
*END

*D_NET net_129 1.2452
*CONN
*I inst_31:ZN O
*I inst_158:A2 I
*I inst_168:A1 I
*CAP
1 inst_31:ZN 0.4230
2 net_129:1 0.3290
3 net_129:2 0.1620
4 inst_158:A2 0.0029
5 net_129:3 0.1392
6 inst_168:A1 0.1891
*RES
2 inst_31:ZN net_129:1 0.2883
3 net_129:1 net_129:2 0.1903
4 net_129:2 inst_158:A2 0.4381
5 net_129:2 net_129:3 0.0464
6 net_129:3 inst_168:A1 0.0364
*END

*D_NET net_12 0.6214
*CONN
*I inst_95:ZN O
*I inst_62:A3 I
*CAP
1 inst_95:ZN 0.4104
2 net_12:1 0.0510
3 inst_62:A3 0.1600
*RES
2 inst_95:ZN net_12:1 0.1748
3 net_12:1 inst_62:A3 0.4787
*END

*D_NET net_151 3.3983
*CONN
*I inst_214:ZN O
*I inst_47:A2 I
*I inst_163:A1 I
*CAP
1 inst_214:ZN 0.4606
2 net_151:1 0.4657
3 net_151:2 0.3595
4 net_151:3 0.2471
5 net_151:4 0.0832
6 inst_47:A2 0.0580
7 net_151:5 0.4950
8 net_151:6 0.0413
9 net_151:7 0.4651
10 net_151:8 0.4065
11 inst_163:A1 0.3164
*RES
2 inst_214:ZN net_151:1 0.3736
3 net_151:1 net_151:2 0.0395
4 net_151:2 net_151:3 0.3644
5 net_151:3 net_151:4 0.0829
6 net_151:4 inst_47:A2 0.1977
7 net_151:4 net_151:5 0.3513
8 net_151:5 net_151:6 0.1165
9 net_151:6 net_151:7 0.0986
10 net_151:7 net_151:8 0.2243
11 net_151:8 inst_163:A1 0.1286
*END

*D_NET net_53 1.4306
*CONN
*I inst_213:ZN O
*I inst_193:A4 I
*CAP
1 inst_213:ZN 0.2482
2 net_53:1 0.1533
3 net_53:2 0.4091
4 net_53:3 0.2613
5 inst_193:A4 0.3587
*RES
2 inst_213:ZN net_53:1 0.1869
3 net_53:1 net_53:2 0.4974
4 net_53:2 net_53:3 0.3047
5 net_53:3 inst_193:A4 0.1200
*END

*D_NET net_93 0.5270
*CONN
*I inst_142:ZN O
*I inst_80:A3 I
*CAP
1 inst_142:ZN 0.1210
2 net_93:1 0.1014
3 net_93:2 0.0283
4 inst_80:A3 0.2763
*RES
2 inst_142:ZN net_93:1 0.2945
3 net_93:1 net_93:2 0.3177
4 net_93:2 inst_80:A3 0.2101
*END

*D_NET net_168 1.4286
*CONN
*I inst_21:ZN O
*I inst_170:A2 I
*CAP
1 inst_21:ZN 0.2046
2 net_168:1 0.1317
3 net_168:2 0.3617
4 net_168:3 0.0856
5 net_168:4 0.3629
6 inst_170:A2 0.2821
*RES
2 inst_21:ZN net_168:1 0.3900
3 net_168:1 net_168:2 0.0557
4 net_168:2 net_168:3 0.1253
5 net_168:3 net_168:4 0.2716
6 net_168:4 inst_170:A2 0.3735
*END

*D_NET net_127 1.5454
*CONN
*I inst_156:ZN O
*I inst_198:A1 I
*CAP
1 inst_156:ZN 0.3323
2 net_127:1 0.0362
3 net_127:2 0.4966
4 net_127:3 0.4101
5 inst_198:A1 0.2702
*RES
2 inst_156:ZN net_127:1 0.2135
3 net_127:1 net_127:2 0.0419
4 net_127:2 net_127:3 0.2773
5 net_127:3 inst_198:A1 0.0903
*END

*D_NET net_101 2.3457
*CONN
*I inst_148:ZN O
*I inst_76:A3 I
*CAP
1 inst_148:ZN 0.4602
2 net_101:1 0.2009
3 net_101:2 0.3114
4 net_101:3 0.3090
5 net_101:4 0.3972
6 net_101:5 0.4228
7 inst_76:A3 0.2443
*RES
2 inst_148:ZN net_101:1 0.2458
3 net_101:1 net_101:2 0.3734
4 net_101:2 net_101:3 0.1567
5 net_101:3 net_101:4 0.1247
6 net_101:4 net_101:5 0.2439
7 net_101:5 inst_76:A3 0.2588
*END

*D_NET net_187 0.9945
*CONN
*I inst_177:ZN O
*I inst_178:A2 I
*CAP
1 inst_177:ZN 0.3528
2 net_187:1 0.4436
3 inst_178:A2 0.1981
*RES
2 inst_177:ZN net_187:1 0.3275
3 net_187:1 inst_178:A2 0.0169
*END

*D_NET net_111 3.6840
*CONN
*I inst_135:ZN O
*I inst_151:A1 I
*I inst_36:A2 I
*I inst_178:A1 I
*CAP
1 inst_135:ZN 0.4684
2 net_111:1 0.0579
3 net_111:2 0.0423
4 net_111:3 0.2861
5 inst_178:A1 0.4278
6 net_111:4 0.4947
7 net_111:5 0.3666
8 inst_36:A2 0.2854
9 net_111:6 0.2044
10 net_111:7 0.1531
11 net_111:8 0.3886
12 net_111:9 0.2618
13 inst_151:A1 0.2468
*RES
2 inst_135:ZN net_111:1 0.3875
3 net_111:1 net_111:2 0.4796
4 net_111:2 net_111:3 0.3740
5 net_111:3 inst_178:A1 0.1554
6 net_111:2 net_111:4 0.4464
7 net_111:4 net_111:5 0.2438
8 net_111:5 inst_36:A2 0.2969
9 net_111:3 net_111:6 0.4002
10 net_111:6 net_111:7 0.3652
11 net_111:7 net_111:8 0.1857
12 net_111:8 net_111:9 0.0562
13 net_111:9 inst_151:A1 0.0882
*END

*D_NET net_90 2.0441
*CONN
*I inst_73:ZN O
*I inst_139:A2 I
*I inst_55:A2 I
*I inst_137:A2 I
*CAP
1 inst_73:ZN 0.2715
2 net_90:1 0.4145
3 inst_137:A2 0.1459
4 net_90:2 0.0212
5 net_90:3 0.1417
6 inst_55:A2 0.2190
7 net_90:4 0.0526
8 net_90:5 0.2388
9 net_90:6 0.1787
10 inst_139:A2 0.3603
*RES
2 inst_73:ZN net_90:1 0.1130
3 net_90:1 inst_137:A2 0.1026
4 net_90:1 net_90:2 0.4826
5 net_90:2 net_90:3 0.1138
6 net_90:3 inst_55:A2 0.4033
7 net_90:3 net_90:4 0.0603
8 net_90:4 net_90:5 0.0863
9 net_90:5 net_90:6 0.3102
10 net_90:6 inst_139:A2 0.1239
*END

*D_NET n26gat 1.6234
*CONN
*P n26gat I
*I inst_87:A2 I
*CAP
1 n26gat 0.0055
2 n26gat:1 0.2412
3 n26gat:2 0.3995
4 n26gat:3 0.4441
5 n26gat:4 0.4218
6 n26gat:5 0.0848
7 inst_87:A2 0.0266
*RES
2 n26gat n26gat:1 0.0274
3 n26gat:1 n26gat:2 0.4218
4 n26gat:2 n26gat:3 0.2061
5 n26gat:3 n26gat:4 0.2110
6 n26gat:4 n26gat:5 0.4583
7 n26gat:5 inst_87:A2 0.3985
*END

*D_NET net_100 2.9562
*CONN
*I inst_75:ZN O
*I inst_148:A2 I
*I inst_31:A2 I
*I inst_147:A2 I
*CAP
1 inst_75:ZN 0.0725
2 net_100:1 0.3124
3 net_100:2 0.3685
4 net_100:3 0.4317
5 net_100:4 0.1801
6 net_100:5 0.2826
7 inst_148:A2 0.3420
8 net_100:6 0.0327
9 net_100:7 0.0608
10 inst_31:A2 0.3721
11 net_100:8 0.2502
12 inst_147:A2 0.2506
*RES
2 inst_75:ZN net_100:1 0.0965
3 net_100:1 net_100:2 0.2555
4 net_100:2 net_100:3 0.1304
5 net_100:3 net_100:4 0.3675
6 net_100:4 net_100:5 0.4634
7 net_100:5 inst_148:A2 0.2869
8 net_100:2 net_100:6 0.4648
9 net_100:6 net_100:7 0.2376
10 net_100:7 inst_31:A2 0.1146
11 net_100:2 net_100:8 0.4486
12 net_100:8 inst_147:A2 0.0641
*END

*D_NET net_85 2.1836
*CONN
*I inst_114:ZN O
*I inst_72:A2 I
*I inst_74:A3 I
*I inst_75:A3 I
*I inst_73:A2 I
*CAP
1 inst_114:ZN 0.0079
2 net_85:1 0.2219
3 inst_72:A2 0.1001
4 net_85:2 0.0620
5 inst_74:A3 0.0267
6 net_85:3 0.3490
7 net_85:4 0.4751
8 inst_75:A3 0.3195
9 net_85:5 0.3777
10 inst_73:A2 0.2437
*RES
2 inst_114:ZN net_85:1 0.2747
3 net_85:1 inst_72:A2 0.1704
4 net_85:1 net_85:2 0.1278
5 net_85:2 inst_74:A3 0.1079
6 net_85:2 net_85:3 0.4748
7 net_85:3 net_85:4 0.2505
8 net_85:4 inst_75:A3 0.2036
9 net_85:4 net_85:5 0.3641
10 net_85:5 inst_73:A2 0.1411
*END

*D_NET net_124 3.2009
*CONN
*I inst_56:ZN O
*I inst_174:A1 I
*I inst_154:A2 I
*I inst_58:A2 I
*CAP
1 inst_56:ZN 0.2723
2 net_124:1 0.2449
3 net_124:2 0.0406
4 net_124:3 0.0917
5 inst_154:A2 0.0078
6 net_124:4 0.2944
7 inst_174:A1 0.3987
8 net_124:5 0.3672
9 net_124:6 0.4629
10 net_124:7 0.1157
11 net_124:8 0.1901
12 net_124:9 0.2138
13 inst_58:A2 0.5008
*RES
2 inst_56:ZN net_124:1 0.0227
3 net_124:1 net_124:2 0.0264
4 net_124:2 net_124:3 0.0174
5 net_124:3 inst_154:A2 0.1906
6 net_124:1 net_124:4 0.0209
7 net_124:4 inst_174:A1 0.1182
8 net_124:1 net_124:5 0.2979
9 net_124:5 net_124:6 0.3428
10 net_124:6 net_124:7 0.2325
11 net_124:7 net_124:8 0.2733
12 net_124:8 net_124:9 0.1266
13 net_124:9 inst_58:A2 0.3814
*END

*D_NET net_160 1.8641
*CONN
*I inst_164:ZN O
*I inst_166:A2 I
*CAP
1 inst_164:ZN 0.3277
2 net_160:1 0.4503
3 net_160:2 0.3676
4 net_160:3 0.1603
5 net_160:4 0.4423
6 inst_166:A2 0.1159
*RES
2 inst_164:ZN net_160:1 0.4527
3 net_160:1 net_160:2 0.1465
4 net_160:2 net_160:3 0.1463
5 net_160:3 net_160:4 0.4621
6 net_160:4 inst_166:A2 0.4065
*END

*D_NET net_115 1.4489
*CONN
*I inst_37:ZN O
*I inst_69:A3 I
*CAP
1 inst_37:ZN 0.2236
2 net_115:1 0.0715
3 net_115:2 0.1546
4 net_115:3 0.1861
5 net_115:4 0.4367
6 net_115:5 0.3452
7 inst_69:A3 0.0313
*RES
2 inst_37:ZN net_115:1 0.1217
3 net_115:1 net_115:2 0.0111
4 net_115:2 net_115:3 0.1222
5 net_115:3 net_115:4 0.0613
6 net_115:4 net_115:5 0.1692
7 net_115:5 inst_69:A3 0.4407
*END

*D_NET n878gat 1.3881
*CONN
*I inst_79:ZN O
*P n878gat O
*CAP
1 inst_79:ZN 0.2563
2 n878gat:1 0.2603
3 n878gat:2 0.2874
4 n878gat:3 0.3072
5 n878gat 0.2768
*RES
2 inst_79:ZN n878gat:1 0.1679
3 n878gat:1 n878gat:2 0.2053
4 n878gat:2 n878gat:3 0.2140
5 n878gat:3 n878gat 0.3306
*END

*D_NET net_4 2.0736
*CONN
*I inst_86:ZN O
*I inst_196:A3 I
*CAP
1 inst_86:ZN 0.2580
2 net_4:1 0.4796
3 net_4:2 0.3806
4 net_4:3 0.4946
5 inst_196:A3 0.4608
*RES
2 inst_86:ZN net_4:1 0.4692
3 net_4:1 net_4:2 0.4766
4 net_4:2 net_4:3 0.0589
5 net_4:3 inst_196:A3 0.0962
*END

*D_NET n51gat 3.8297
*CONN
*P n51gat I
*I inst_209:A1 I
*I inst_60:A1 I
*I inst_94:A1 I
*CAP
1 n51gat 0.1750
2 n51gat:1 0.0845
3 n51gat:2 0.1888
4 n51gat:3 0.1436
5 n51gat:4 0.1762
6 n51gat:5 0.4748
7 inst_60:A1 0.0806
8 n51gat:6 0.4110
9 n51gat:7 0.0191
10 inst_209:A1 0.3538
11 n51gat:8 0.4025
12 n51gat:9 0.5010
13 n51gat:10 0.3538
14 inst_94:A1 0.4649
*RES
2 n51gat n51gat:1 0.0407
3 n51gat:1 n51gat:2 0.2069
4 n51gat:2 n51gat:3 0.0491
5 n51gat:3 n51gat:4 0.4137
6 n51gat:4 n51gat:5 0.3046
7 n51gat:5 inst_60:A1 0.2987
8 n51gat:3 n51gat:6 0.4300
9 n51gat:6 n51gat:7 0.3629
10 n51gat:7 inst_209:A1 0.0787
11 n51gat:3 n51gat:8 0.0482
12 n51gat:8 n51gat:9 0.1062
13 n51gat:9 n51gat:10 0.2963
14 n51gat:10 inst_94:A1 0.4911
*END

*D_NET n865gat 1.3448
*CONN
*I inst_68:ZN O
*P n865gat O
*CAP
1 inst_68:ZN 0.2573
2 n865gat:1 0.0616
3 n865gat:2 0.4298
4 n865gat:3 0.2857
5 n865gat:4 0.2634
6 n865gat 0.0470
*RES
2 inst_68:ZN n865gat:1 0.0745
3 n865gat:1 n865gat:2 0.1738
4 n865gat:2 n865gat:3 0.4336
5 n865gat:3 n865gat:4 0.4556
6 n865gat:4 n865gat 0.1284
*END

*D_NET net_164 1.6488
*CONN
*I inst_167:ZN O
*I inst_195:A4 I
*CAP
1 inst_167:ZN 0.1731
2 net_164:1 0.3095
3 net_164:2 0.4895
4 net_164:3 0.4033
5 inst_195:A4 0.2734
*RES
2 inst_167:ZN net_164:1 0.3461
3 net_164:1 net_164:2 0.3729
4 net_164:2 net_164:3 0.0418
5 net_164:3 inst_195:A4 0.3671
*END

*D_NET net_87 1.1766
*CONN
*I inst_136:ZN O
*I inst_68:A4 I
*CAP
1 inst_136:ZN 0.1458
2 net_87:1 0.0683
3 net_87:2 0.2135
4 net_87:3 0.4484
5 net_87:4 0.1379
6 net_87:5 0.1139
7 inst_68:A4 0.0489
*RES
2 inst_136:ZN net_87:1 0.0861
3 net_87:1 net_87:2 0.1477
4 net_87:2 net_87:3 0.4806
5 net_87:3 net_87:4 0.3473
6 net_87:4 net_87:5 0.1114
7 net_87:5 inst_68:A4 0.0198
*END

*D_NET net_0 1.3546
*CONN
*I inst_81:ZN O
*I inst_199:A3 I
*CAP
1 inst_81:ZN 0.1100
2 net_0:1 0.3290
3 net_0:2 0.1592
4 net_0:3 0.4236
5 inst_199:A3 0.3328
*RES
2 inst_81:ZN net_0:1 0.1906
3 net_0:1 net_0:2 0.5003
4 net_0:2 net_0:3 0.4347
5 net_0:3 inst_199:A3 0.3044
*END

*D_NET n87gat 1.5228
*CONN
*P n87gat I
*I inst_28:A1 I
*CAP
1 n87gat 0.0096
2 n87gat:1 0.2377
3 n87gat:2 0.2571
4 n87gat:3 0.3610
5 n87gat:4 0.0042
6 n87gat:5 0.2690
7 inst_28:A1 0.3841
*RES
2 n87gat n87gat:1 0.3400
3 n87gat:1 n87gat:2 0.2352
4 n87gat:2 n87gat:3 0.3112
5 n87gat:3 n87gat:4 0.1345
6 n87gat:4 n87gat:5 0.4134
7 n87gat:5 inst_28:A1 0.0741
*END

*D_NET net_35 0.9047
*CONN
*I inst_104:ZN O
*I inst_60:A4 I
*CAP
1 inst_104:ZN 0.4891
2 net_35:1 0.2122
3 inst_60:A4 0.2034
*RES
2 inst_104:ZN net_35:1 0.1253
3 net_35:1 inst_60:A4 0.2112
*END

*D_NET n74gat 0.7145
*CONN
*P n74gat I
*I inst_204:A1 I
*CAP
1 n74gat 0.1106
2 n74gat:1 0.2644
3 inst_204:A1 0.3395
*RES
2 n74gat n74gat:1 0.4160
3 n74gat:1 inst_204:A1 0.1311
*END

*D_NET net_193 0.5652
*CONN
*I inst_200:ZN O
*I inst_79:A1 I
*CAP
1 inst_200:ZN 0.0535
2 net_193:1 0.2939
3 inst_79:A1 0.2177
*RES
2 inst_200:ZN net_193:1 0.0520
3 net_193:1 inst_79:A1 0.1787
*END

*D_NET net_157 1.2588
*CONN
*I inst_49:ZN O
*I inst_199:A2 I
*CAP
1 inst_49:ZN 0.2308
2 net_157:1 0.4154
3 net_157:2 0.4205
4 inst_199:A2 0.1921
*RES
2 inst_49:ZN net_157:1 0.3303
3 net_157:1 net_157:2 0.0500
4 net_157:2 inst_199:A2 0.3450
*END

*D_NET n260gat 1.3816
*CONN
*P n260gat I
*I inst_83:A2 I
*CAP
1 n260gat 0.2397
2 n260gat:1 0.0450
3 n260gat:2 0.3586
4 n260gat:3 0.1804
5 n260gat:4 0.2132
6 inst_83:A2 0.3448
*RES
2 n260gat n260gat:1 0.2539
3 n260gat:1 n260gat:2 0.0169
4 n260gat:2 n260gat:3 0.2910
5 n260gat:3 n260gat:4 0.3418
6 n260gat:4 inst_83:A2 0.0277
*END

*D_NET net_42 1.3039
*CONN
*I inst_52:ZN O
*I inst_105:A2 I
*I inst_106:A2 I
*CAP
1 inst_52:ZN 0.0700
2 net_42:1 0.4916
3 net_42:2 0.0258
4 net_42:3 0.0722
5 net_42:4 0.0268
6 inst_105:A2 0.0274
7 net_42:5 0.1555
8 inst_106:A2 0.4347
*RES
2 inst_52:ZN net_42:1 0.0955
3 net_42:1 net_42:2 0.0758
4 net_42:2 net_42:3 0.0730
5 net_42:3 net_42:4 0.2996
6 net_42:4 inst_105:A2 0.1500
7 net_42:3 net_42:5 0.2976
8 net_42:5 inst_106:A2 0.3531
*END

*D_NET net_120 0.8501
*CONN
*I inst_39:ZN O
*I inst_66:A3 I
*CAP
1 inst_39:ZN 0.1823
2 net_120:1 0.3163
3 inst_66:A3 0.3515
*RES
2 inst_39:ZN net_120:1 0.2983
3 net_120:1 inst_66:A3 0.4269
*END

*D_NET net_109 1.6831
*CONN
*I inst_35:ZN O
*I inst_201:A1 I
*CAP
1 inst_35:ZN 0.0341
2 net_109:1 0.3389
3 net_109:2 0.4000
4 net_109:3 0.0188
5 net_109:4 0.4709
6 inst_201:A1 0.4204
*RES
2 inst_35:ZN net_109:1 0.0122
3 net_109:1 net_109:2 0.2688
4 net_109:2 net_109:3 0.0936
5 net_109:3 net_109:4 0.3051
6 net_109:4 inst_201:A1 0.1197
*END

*D_NET net_65 0.8159
*CONN
*I inst_119:ZN O
*I inst_62:A4 I
*CAP
1 inst_119:ZN 0.2210
2 net_65:1 0.2798
3 inst_62:A4 0.3150
*RES
2 inst_119:ZN net_65:1 0.0137
3 net_65:1 inst_62:A4 0.2108
*END

*D_NET net_80 1.1420
*CONN
*I inst_132:ZN O
*I inst_80:A2 I
*CAP
1 inst_132:ZN 0.0161
2 net_80:1 0.3729
3 net_80:2 0.0610
4 net_80:3 0.4010
5 inst_80:A2 0.2910
*RES
2 inst_132:ZN net_80:1 0.3768
3 net_80:1 net_80:2 0.3083
4 net_80:2 net_80:3 0.1250
5 net_80:3 inst_80:A2 0.3526
*END

*D_NET net_50 2.0663
*CONN
*I inst_210:ZN O
*I inst_107:A2 I
*I inst_212:A2 I
*CAP
1 inst_210:ZN 0.3144
2 net_50:1 0.0820
3 net_50:2 0.2174
4 net_50:3 0.3638
5 net_50:4 0.4097
6 inst_212:A2 0.2418
7 net_50:5 0.1278
8 inst_107:A2 0.3093
*RES
2 inst_210:ZN net_50:1 0.4080
3 net_50:1 net_50:2 0.3118
4 net_50:2 net_50:3 0.4981
5 net_50:3 net_50:4 0.3134
6 net_50:4 inst_212:A2 0.4059
7 net_50:1 net_50:5 0.3342
8 net_50:5 inst_107:A2 0.2150
*END

*D_NET n183gat 4.0109
*CONN
*P n183gat I
*I inst_5:A I
*I inst_31:A1 I
*I inst_130:A1 I
*I inst_147:A1 I
*CAP
1 n183gat 0.1830
2 n183gat:1 0.0712
3 n183gat:2 0.0044
4 n183gat:3 0.1986
5 inst_5:A 0.0476
6 n183gat:4 0.1466
7 n183gat:5 0.2784
8 n183gat:6 0.2008
9 inst_31:A1 0.3776
10 n183gat:7 0.3567
11 n183gat:8 0.3242
12 n183gat:9 0.2336
13 n183gat:10 0.3863
14 inst_130:A1 0.2365
15 n183gat:11 0.4791
16 n183gat:12 0.2417
17 inst_147:A1 0.2444
*RES
2 n183gat n183gat:1 0.0521
3 n183gat:1 n183gat:2 0.0546
4 n183gat:2 n183gat:3 0.0043
5 n183gat:3 inst_5:A 0.2737
6 n183gat:2 n183gat:4 0.2937
7 n183gat:4 n183gat:5 0.0093
8 n183gat:5 n183gat:6 0.2822
9 n183gat:6 inst_31:A1 0.4311
10 n183gat:2 n183gat:7 0.1037
11 n183gat:7 n183gat:8 0.3572
12 n183gat:8 n183gat:9 0.2211
13 n183gat:9 n183gat:10 0.2185
14 n183gat:10 inst_130:A1 0.2266
15 n183gat:6 n183gat:11 0.4262
16 n183gat:11 n183gat:12 0.3737
17 n183gat:12 inst_147:A1 0.3015
*END

*D_NET n130gat 2.4069
*CONN
*P n130gat I
*I inst_14:B I
*I inst_13:B I
*CAP
1 n130gat 0.3035
2 n130gat:1 0.0863
3 n130gat:2 0.2362
4 n130gat:3 0.1365
5 n130gat:4 0.0277
6 n130gat:5 0.4263
7 inst_14:B 0.2912
8 n130gat:6 0.1146
9 n130gat:7 0.3234
10 inst_13:B 0.4610
*RES
2 n130gat n130gat:1 0.1111
3 n130gat:1 n130gat:2 0.3711
4 n130gat:2 n130gat:3 0.0512
5 n130gat:3 n130gat:4 0.1351
6 n130gat:4 n130gat:5 0.0984
7 n130gat:5 inst_14:B 0.0368
8 n130gat:1 n130gat:6 0.4832
9 n130gat:6 n130gat:7 0.2776
10 n130gat:7 inst_13:B 0.3781
*END

*D_NET net_38 1.1921
*CONN
*I inst_9:ZN O
*I inst_13:A I
*CAP
1 inst_9:ZN 0.0185
2 net_38:1 0.1588
3 net_38:2 0.3738
4 net_38:3 0.4556
5 net_38:4 0.1835
6 inst_13:A 0.0020
*RES
2 inst_9:ZN net_38:1 0.2614
3 net_38:1 net_38:2 0.3010
4 net_38:2 net_38:3 0.2164
5 net_38:3 net_38:4 0.4372
6 net_38:4 inst_13:A 0.1158
*END

*D_NET net_66 1.1191
*CONN
*I inst_120:ZN O
*I inst_63:A4 I
*CAP
1 inst_120:ZN 0.3810
2 net_66:1 0.1662
3 net_66:2 0.3178
4 inst_63:A4 0.2541
*RES
2 inst_120:ZN net_66:1 0.2497
3 net_66:1 net_66:2 0.4625
4 net_66:2 inst_63:A4 0.2343
*END

*D_NET net_96 3.3987
*CONN
*I inst_62:ZN O
*I inst_140:A2 I
*I inst_144:A2 I
*I inst_56:A2 I
*CAP
1 inst_62:ZN 0.3461
2 net_96:1 0.4109
3 net_96:2 0.0945
4 net_96:3 0.2326
5 inst_140:A2 0.0121
6 net_96:4 0.4527
7 inst_144:A2 0.3131
8 net_96:5 0.3736
9 net_96:6 0.3306
10 net_96:7 0.3042
11 net_96:8 0.1317
12 net_96:9 0.1481
13 inst_56:A2 0.2485
*RES
2 inst_62:ZN net_96:1 0.2674
3 net_96:1 net_96:2 0.2072
4 net_96:2 net_96:3 0.0414
5 net_96:3 inst_140:A2 0.2455
6 net_96:1 net_96:4 0.4392
7 net_96:4 inst_144:A2 0.4048
8 net_96:3 net_96:5 0.2201
9 net_96:5 net_96:6 0.2966
10 net_96:6 net_96:7 0.3013
11 net_96:7 net_96:8 0.0758
12 net_96:8 net_96:9 0.0262
13 net_96:9 inst_56:A2 0.3812
*END

*D_NET n446gat 0.5106
*CONN
*I inst_106:ZN O
*P n446gat O
*CAP
1 inst_106:ZN 0.1550
2 n446gat:1 0.1418
3 n446gat 0.2138
*RES
2 inst_106:ZN n446gat:1 0.3805
3 n446gat:1 n446gat 0.2523
*END

*D_NET net_167 1.6754
*CONN
*I inst_194:ZN O
*I inst_67:A2 I
*CAP
1 inst_194:ZN 0.4938
2 net_167:1 0.2131
3 net_167:2 0.3201
4 net_167:3 0.0320
5 net_167:4 0.2786
6 inst_67:A2 0.3378
*RES
2 inst_194:ZN net_167:1 0.4364
3 net_167:1 net_167:2 0.2454
4 net_167:2 net_167:3 0.4527
5 net_167:3 net_167:4 0.2663
6 net_167:4 inst_67:A2 0.3641
*END

*D_NET net_136 3.3233
*CONN
*I inst_152:ZN O
*I inst_42:A2 I
*I inst_23:A I
*CAP
1 inst_152:ZN 0.2701
2 net_136:1 0.4105
3 net_136:2 0.3004
4 net_136:3 0.3665
5 net_136:4 0.1341
6 inst_42:A2 0.0859
7 net_136:5 0.1840
8 net_136:6 0.4010
9 net_136:7 0.3573
10 net_136:8 0.4559
11 inst_23:A 0.3575
*RES
2 inst_152:ZN net_136:1 0.1706
3 net_136:1 net_136:2 0.3812
4 net_136:2 net_136:3 0.0751
5 net_136:3 net_136:4 0.1227
6 net_136:4 inst_42:A2 0.0294
7 net_136:4 net_136:5 0.1715
8 net_136:5 net_136:6 0.3050
9 net_136:6 net_136:7 0.3594
10 net_136:7 net_136:8 0.4902
11 net_136:8 inst_23:A 0.4716
*END

*D_NET net_19 0.8507
*CONN
*I inst_0:Z O
*I inst_9:A I
*CAP
1 inst_0:Z 0.1762
2 net_19:1 0.1660
3 net_19:2 0.2177
4 inst_9:A 0.2908
*RES
2 inst_0:Z net_19:1 0.3318
3 net_19:1 net_19:2 0.3308
4 net_19:2 inst_9:A 0.4080
*END

*D_NET n177gat 5.0133
*CONN
*P n177gat I
*I inst_134:A1 I
*I inst_146:A1 I
*I inst_30:A1 I
*I inst_4:B I
*CAP
1 n177gat 0.1932
2 n177gat:1 0.0053
3 inst_4:B 0.1459
4 n177gat:2 0.4574
5 n177gat:3 0.4683
6 n177gat:4 0.1543
7 n177gat:5 0.4873
8 inst_146:A1 0.1669
9 n177gat:6 0.4210
10 n177gat:7 0.2594
11 n177gat:8 0.3565
12 inst_30:A1 0.4074
13 n177gat:9 0.3870
14 n177gat:10 0.3663
15 n177gat:11 0.1512
16 n177gat:12 0.1368
17 inst_134:A1 0.4493
*RES
2 n177gat n177gat:1 0.0437
3 n177gat:1 inst_4:B 0.4598
4 n177gat:1 n177gat:2 0.4800
5 n177gat:2 n177gat:3 0.4518
6 n177gat:3 n177gat:4 0.0570
7 n177gat:4 n177gat:5 0.4909
8 n177gat:5 inst_146:A1 0.0572
9 n177gat:1 n177gat:6 0.4309
10 n177gat:6 n177gat:7 0.4474
11 n177gat:7 n177gat:8 0.2931
12 n177gat:8 inst_30:A1 0.2848
13 n177gat:4 n177gat:9 0.4663
14 n177gat:9 n177gat:10 0.2866
15 n177gat:10 n177gat:11 0.1873
16 n177gat:11 n177gat:12 0.1599
17 n177gat:12 inst_134:A1 0.3589
*END

*D_NET net_126 4.1271
*CONN
*I inst_145:ZN O
*I inst_155:A1 I
*I inst_35:A2 I
*I inst_69:A2 I
*CAP
1 inst_145:ZN 0.4844
2 net_126:1 0.2861
3 inst_69:A2 0.1883
4 net_126:2 0.1285
5 net_126:3 0.0491
6 net_126:4 0.3511
7 net_126:5 0.2111
8 net_126:6 0.3010
9 inst_35:A2 0.1515
10 net_126:7 0.3648
11 net_126:8 0.4404
12 net_126:9 0.3187
13 net_126:10 0.4272
14 net_126:11 0.0224
15 inst_155:A1 0.4026
*RES
2 inst_145:ZN net_126:1 0.3075
3 net_126:1 inst_69:A2 0.0604
4 net_126:1 net_126:2 0.0492
5 net_126:2 net_126:3 0.2707
6 net_126:3 net_126:4 0.0711
7 net_126:4 net_126:5 0.2365
8 net_126:5 net_126:6 0.0021
9 net_126:6 inst_35:A2 0.2080
10 net_126:5 net_126:7 0.2784
11 net_126:7 net_126:8 0.1803
12 net_126:8 net_126:9 0.0882
13 net_126:9 net_126:10 0.2924
14 net_126:10 net_126:11 0.4780
15 net_126:11 inst_155:A1 0.3510
*END

*D_NET n91gat 3.7606
*CONN
*P n91gat I
*I inst_122:A1 I
*I inst_88:A2 I
*I inst_0:A I
*CAP
1 n91gat 0.2614
2 n91gat:1 0.2582
3 n91gat:2 0.4484
4 inst_122:A1 0.0762
5 n91gat:3 0.4671
6 n91gat:4 0.2972
7 n91gat:5 0.3936
8 n91gat:6 0.4880
9 n91gat:7 0.4169
10 inst_88:A2 0.3167
11 n91gat:8 0.0048
12 n91gat:9 0.3126
13 inst_0:A 0.0195
*RES
2 n91gat n91gat:1 0.1986
3 n91gat:1 n91gat:2 0.3922
4 n91gat:2 inst_122:A1 0.3950
5 n91gat:2 n91gat:3 0.3376
6 n91gat:3 n91gat:4 0.1073
7 n91gat:4 n91gat:5 0.3579
8 n91gat:5 n91gat:6 0.1300
9 n91gat:6 n91gat:7 0.3795
10 n91gat:7 inst_88:A2 0.2362
11 n91gat:5 n91gat:8 0.0541
12 n91gat:8 n91gat:9 0.3700
13 n91gat:9 inst_0:A 0.3260
*END

*D_NET net_34 1.8468
*CONN
*I inst_8:ZN O
*I inst_61:A4 I
*CAP
1 inst_8:ZN 0.4948
2 net_34:1 0.1954
3 net_34:2 0.0063
4 net_34:3 0.4904
5 net_34:4 0.0915
6 net_34:5 0.4619
7 inst_61:A4 0.1065
*RES
2 inst_8:ZN net_34:1 0.1990
3 net_34:1 net_34:2 0.2576
4 net_34:2 net_34:3 0.0690
5 net_34:3 net_34:4 0.2231
6 net_34:4 net_34:5 0.2934
7 net_34:5 inst_61:A4 0.0661
*END

*D_NET net_108 0.8263
*CONN
*I inst_34:ZN O
*I inst_199:A1 I
*CAP
1 inst_34:ZN 0.1011
2 net_108:1 0.0765
3 net_108:2 0.1980
4 net_108:3 0.3226
5 inst_199:A1 0.1282
*RES
2 inst_34:ZN net_108:1 0.2766
3 net_108:1 net_108:2 0.4045
4 net_108:2 net_108:3 0.4267
5 net_108:3 inst_199:A1 0.4596
*END

*D_NET net_183 1.8134
*CONN
*I inst_175:ZN O
*I inst_26:A I
*CAP
1 inst_175:ZN 0.4724
2 net_183:1 0.0407
3 net_183:2 0.4130
4 net_183:3 0.3462
5 net_183:4 0.0714
6 net_183:5 0.2110
7 inst_26:A 0.2588
*RES
2 inst_175:ZN net_183:1 0.0339
3 net_183:1 net_183:2 0.0519
4 net_183:2 net_183:3 0.4874
5 net_183:3 net_183:4 0.0374
6 net_183:4 net_183:5 0.2489
7 net_183:5 inst_26:A 0.2584
*END

*D_NET n88gat 1.1848
*CONN
*P n88gat I
*I inst_28:A2 I
*CAP
1 n88gat 0.4333
2 n88gat:1 0.3416
3 inst_28:A2 0.4099
*RES
2 n88gat n88gat:1 0.1540
3 n88gat:1 inst_28:A2 0.0325
*END

*D_NET net_150 1.0242
*CONN
*I inst_46:ZN O
*I inst_195:A1 I
*CAP
1 inst_46:ZN 0.1850
2 net_150:1 0.2746
3 net_150:2 0.4228
4 inst_195:A1 0.1417
*RES
2 inst_46:ZN net_150:1 0.3754
3 net_150:1 net_150:2 0.2016
4 net_150:2 inst_195:A1 0.0068
*END

*D_NET net_63 1.7534
*CONN
*I inst_117:ZN O
*I inst_75:A1 I
*CAP
1 inst_117:ZN 0.4220
2 net_63:1 0.0580
3 net_63:2 0.3810
4 net_63:3 0.2195
5 net_63:4 0.2042
6 net_63:5 0.2030
7 inst_75:A1 0.2656
*RES
2 inst_117:ZN net_63:1 0.4413
3 net_63:1 net_63:2 0.1336
4 net_63:2 net_63:3 0.4042
5 net_63:3 net_63:4 0.0451
6 net_63:4 net_63:5 0.2391
7 net_63:5 inst_75:A1 0.0321
*END

*D_NET n879gat 1.0327
*CONN
*I inst_80:ZN O
*P n879gat O
*CAP
1 inst_80:ZN 0.0857
2 n879gat:1 0.2245
3 n879gat:2 0.4797
4 n879gat:3 0.0551
5 n879gat 0.1877
*RES
2 inst_80:ZN n879gat:1 0.0973
3 n879gat:1 n879gat:2 0.4235
4 n879gat:2 n879gat:3 0.1903
5 n879gat:3 n879gat 0.2143
*END

*D_NET n255gat 3.6149
*CONN
*P n255gat I
*I inst_83:A1 I
*I inst_93:A1 I
*I inst_92:A1 I
*CAP
1 n255gat 0.2421
2 n255gat:1 0.2497
3 n255gat:2 0.2766
4 n255gat:3 0.3086
5 n255gat:4 0.2353
6 n255gat:5 0.4838
7 inst_83:A1 0.0722
8 n255gat:6 0.0224
9 n255gat:7 0.3933
10 inst_93:A1 0.2244
11 n255gat:8 0.4918
12 n255gat:9 0.3583
13 n255gat:10 0.0251
14 n255gat:11 0.0071
15 inst_92:A1 0.2242
*RES
2 n255gat n255gat:1 0.3539
3 n255gat:1 n255gat:2 0.3446
4 n255gat:2 n255gat:3 0.0192
5 n255gat:3 n255gat:4 0.1341
6 n255gat:4 n255gat:5 0.4054
7 n255gat:5 inst_83:A1 0.3681
8 n255gat:2 n255gat:6 0.4154
9 n255gat:6 n255gat:7 0.1374
10 n255gat:7 inst_93:A1 0.1713
11 n255gat:4 n255gat:8 0.4834
12 n255gat:8 n255gat:9 0.4589
13 n255gat:9 n255gat:10 0.0098
14 n255gat:10 n255gat:11 0.3264
15 n255gat:11 inst_92:A1 0.2846
*END

*D_NET net_30 3.3299
*CONN
*I inst_28:ZN O
*I inst_218:A2 I
*I inst_220:A2 I
*CAP
1 inst_28:ZN 0.1185
2 net_30:1 0.3703
3 net_30:2 0.0365
4 net_30:3 0.4409
5 net_30:4 0.4335
6 net_30:5 0.3158
7 inst_220:A2 0.2513
8 net_30:6 0.1489
9 net_30:7 0.3442
10 net_30:8 0.1815
11 net_30:9 0.2112
12 net_30:10 0.3238
13 inst_218:A2 0.1536
*RES
2 inst_28:ZN net_30:1 0.4798
3 net_30:1 net_30:2 0.1640
4 net_30:2 net_30:3 0.1778
5 net_30:3 net_30:4 0.3155
6 net_30:4 net_30:5 0.4909
7 net_30:5 inst_220:A2 0.2285
8 net_30:3 net_30:6 0.2744
9 net_30:6 net_30:7 0.3973
10 net_30:7 net_30:8 0.0682
11 net_30:8 net_30:9 0.0813
12 net_30:9 net_30:10 0.2235
13 net_30:10 inst_218:A2 0.0018
*END

*D_NET net_189 1.8273
*CONN
*I inst_26:ZN O
*I inst_180:A2 I
*CAP
1 inst_26:ZN 0.4580
2 net_189:1 0.4660
3 net_189:2 0.3296
4 net_189:3 0.2711
5 net_189:4 0.1177
6 net_189:5 0.1130
7 inst_180:A2 0.0719
*RES
2 inst_26:ZN net_189:1 0.2913
3 net_189:1 net_189:2 0.3837
4 net_189:2 net_189:3 0.4308
5 net_189:3 net_189:4 0.4593
6 net_189:4 net_189:5 0.4578
7 net_189:5 inst_180:A2 0.1666
*END

*D_NET net_24 1.7192
*CONN
*I inst_5:ZN O
*I inst_10:B I
*CAP
1 inst_5:ZN 0.2000
2 net_24:1 0.3792
3 net_24:2 0.3945
4 net_24:3 0.1168
5 net_24:4 0.0632
6 net_24:5 0.3389
7 inst_10:B 0.2267
*RES
2 inst_5:ZN net_24:1 0.0022
3 net_24:1 net_24:2 0.3986
4 net_24:2 net_24:3 0.0342
5 net_24:3 net_24:4 0.1492
6 net_24:4 net_24:5 0.1342
7 net_24:5 inst_10:B 0.2299
*END

*D_NET net_99 2.4741
*CONN
*I inst_55:ZN O
*I inst_157:A2 I
*I inst_59:A1 I
*I inst_39:A2 I
*CAP
1 inst_55:ZN 0.0789
2 net_99:1 0.2162
3 net_99:2 0.3480
4 inst_39:A2 0.3423
5 net_99:3 0.2277
6 net_99:4 0.1399
7 net_99:5 0.3067
8 net_99:6 0.2194
9 inst_59:A1 0.0694
10 net_99:7 0.2788
11 inst_157:A2 0.2469
*RES
2 inst_55:ZN net_99:1 0.3091
3 net_99:1 net_99:2 0.3077
4 net_99:2 inst_39:A2 0.0259
5 net_99:1 net_99:3 0.1731
6 net_99:3 net_99:4 0.0340
7 net_99:4 net_99:5 0.1910
8 net_99:5 net_99:6 0.0233
9 net_99:6 inst_59:A1 0.1519
10 net_99:6 net_99:7 0.0975
11 net_99:7 inst_157:A2 0.1398
*END

*D_NET net_46 0.7875
*CONN
*I inst_13:ZN O
*I inst_18:B I
*CAP
1 inst_13:ZN 0.2235
2 net_46:1 0.0538
3 net_46:2 0.1085
4 net_46:3 0.3839
5 inst_18:B 0.0178
*RES
2 inst_13:ZN net_46:1 0.1655
3 net_46:1 net_46:2 0.3230
4 net_46:2 net_46:3 0.3040
5 net_46:3 inst_18:B 0.3068
*END

*D_NET net_186 2.3482
*CONN
*I inst_69:ZN O
*I inst_177:A2 I
*I inst_25:A I
*CAP
1 inst_69:ZN 0.0490
2 net_186:1 0.4082
3 net_186:2 0.0586
4 inst_177:A2 0.2553
5 net_186:3 0.3838
6 net_186:4 0.2328
7 net_186:5 0.0616
8 net_186:6 0.3670
9 net_186:7 0.3852
10 inst_25:A 0.1467
*RES
2 inst_69:ZN net_186:1 0.4766
3 net_186:1 net_186:2 0.4662
4 net_186:2 inst_177:A2 0.1239
5 net_186:2 net_186:3 0.2409
6 net_186:3 net_186:4 0.4071
7 net_186:4 net_186:5 0.2078
8 net_186:5 net_186:6 0.1018
9 net_186:6 net_186:7 0.2212
10 net_186:7 inst_25:A 0.0552
*END

*D_NET n55gat 2.1877
*CONN
*P n55gat I
*I inst_114:A1 I
*I inst_202:A1 I
*I inst_212:A1 I
*CAP