*SPEF "IEEE 1481-1998"
*DESIGN "changes"
*DATE "Tue Dec 02 20:47:10 2014"
*VENDOR "TAU 2015 Contest"
*PROGRAM "Benchmark Parasitic Generator"
*VERSION "0.0"
*DESIGN_FLOW "NETLIST_TYPE_VERILOG"
*DIVIDER /
*DELIMITER :
*BUS_DELIMITER [ ]
*T_UNIT 1 PS
*C_UNIT 1 FF
*R_UNIT 1 KOHM
*L_UNIT 1 UH

*D_NET TAUNET_9 1.7439
*CONN
*I inst_137:ZN O
*I TAUGATE_9:A I
*CAP
1 inst_137:ZN 0.2611
2 TAUNET_9:1 0.4098
3 TAUNET_9:2 0.5009
4 TAUNET_9:3 0.2843
5 TAUGATE_9:A 0.2878
*RES
2 inst_137:ZN TAUNET_9:1 0.1659
3 TAUNET_9:1 TAUNET_9:2 0.2742
4 TAUNET_9:2 TAUNET_9:3 0.3494
5 TAUNET_9:3 TAUGATE_9:A 0.1485
*END

*D_NET net_88 1.3760
*CONN
*I TAUGATE_9:Z O
*I inst_70:A4 I
*CAP
1 TAUGATE_9:Z 0.2110
2 net_88:1 0.3070
3 net_88:2 0.3583
4 net_88:3 0.1395
5 net_88:4 0.0646
6 net_88:5 0.0794
7 inst_70:A4 0.2161
*RES
2 TAUGATE_9:Z net_88:1 0.1614
3 net_88:1 net_88:2 0.3312
4 net_88:2 net_88:3 0.3755
5 net_88:3 net_88:4 0.4644
6 net_88:4 net_88:5 0.4559
7 net_88:5 inst_70:A4 0.4050
*END

*D_NET TAUNET_5 0.4849
*CONN
*I inst_144:ZN O
*I TAUGATE_5:A I
*CAP
1 inst_144:ZN 0.1670
2 TAUNET_5:1 0.2440
3 TAUNET_5:2 0.0332
4 TAUGATE_5:A 0.0406
*RES
2 inst_144:ZN TAUNET_5:1 0.2732
3 TAUNET_5:1 TAUNET_5:2 0.0073
4 TAUNET_5:2 TAUGATE_5:A 0.1308
*END

*D_NET TAUNET_8 1.8161
*CONN
*I inst_198:ZN O
*I TAUGATE_8:A I
*CAP
1 inst_198:ZN 0.2909
2 TAUNET_8:1 0.0740
3 TAUNET_8:2 0.4871
4 TAUNET_8:3 0.4951
5 TAUNET_8:4 0.4125
6 TAUGATE_8:A 0.0565
*RES
2 inst_198:ZN TAUNET_8:1 0.1285
3 TAUNET_8:1 TAUNET_8:2 0.0292
4 TAUNET_8:2 TAUNET_8:3 0.2926
5 TAUNET_8:3 TAUNET_8:4 0.4507
6 TAUNET_8:4 TAUGATE_8:A 0.3356
*END

*D_NET net_86 4.2828
*CONN
*I TAUGATE_7:Z O
*I inst_135:A2 I
*I inst_29:A2 I
*I inst_141:A2 I
*CAP
1 TAUGATE_7:Z 0.3845
2 net_86:1 0.3056
3 net_86:2 0.3464
4 net_86:3 0.0305
5 net_86:4 0.2383
6 net_86:5 0.4020
7 inst_141:A2 0.2529
8 net_86:6 0.2236
9 inst_29:A2 0.1922
10 net_86:7 0.4680
11 net_86:8 0.2976
12 net_86:9 0.2331
13 net_86:10 0.2927
14 net_86:11 0.3943
15 inst_135:A2 0.2211
*RES
2 TAUGATE_7:Z net_86:1 0.2665
3 net_86:1 net_86:2 0.4354
4 net_86:2 net_86:3 0.1977
5 net_86:3 net_86:4 0.0788
6 net_86:4 net_86:5 0.3276
7 net_86:5 inst_141:A2 0.3833
8 net_86:4 net_86:6 0.2805
9 net_86:6 inst_29:A2 0.1322
10 net_86:3 net_86:7 0.1955
11 net_86:7 net_86:8 0.1868
12 net_86:8 net_86:9 0.4889
13 net_86:9 net_86:10 0.0703
14 net_86:10 net_86:11 0.3298
15 net_86:11 inst_135:A2 0.4131
*END

*D_NET net_170 1.4221
*CONN
*I TAUGATE_6:Z O
*I inst_68:A2 I
*CAP
1 TAUGATE_6:Z 0.2621
2 net_170:1 0.1808
3 net_170:2 0.0717
4 net_170:3 0.3990
5 net_170:4 0.4035
6 net_170:5 0.0219
7 inst_68:A2 0.0830
*RES
2 TAUGATE_6:Z net_170:1 0.4539
3 net_170:1 net_170:2 0.1250
4 net_170:2 net_170:3 0.3196
5 net_170:3 net_170:4 0.4976
6 net_170:4 net_170:5 0.3591
7 net_170:5 inst_68:A2 0.2780
*END

*D_NET net_184 2.6031
*CONN
*I TAUGATE_8:Z O
*I inst_77:A1 I
*CAP
1 TAUGATE_8:Z 0.1593
2 net_184:1 0.3498
3 net_184:2 0.4055
4 net_184:3 0.4519
5 net_184:4 0.4658
6 net_184:5 0.3690
7 inst_77:A1 0.4019
*RES
2 TAUGATE_8:Z net_184:1 0.0632
3 net_184:1 net_184:2 0.2503
4 net_184:2 net_184:3 0.4700
5 net_184:3 net_184:4 0.3789
6 net_184:4 net_184:5 0.3545
7 net_184:5 inst_77:A1 0.1033
*END

*D_NET TAUNET_6 1.3094
*CONN
*I inst_195:ZN O
*I TAUGATE_6:A I
*CAP
1 inst_195:ZN 0.1782
2 TAUNET_6:1 0.0376
3 TAUNET_6:2 0.0972
4 TAUNET_6:3 0.3594
5 TAUNET_6:4 0.0525
6 TAUNET_6:5 0.3248
7 TAUGATE_6:A 0.2597
*RES
2 inst_195:ZN TAUNET_6:1 0.1267
3 TAUNET_6:1 TAUNET_6:2 0.3840
4 TAUNET_6:2 TAUNET_6:3 0.2434
5 TAUNET_6:3 TAUNET_6:4 0.3726
6 TAUNET_6:4 TAUNET_6:5 0.2980
7 TAUNET_6:5 TAUGATE_6:A 0.2454
*END

*D_NET net_125 3.7296
*CONN
*I TAUGATE_5:Z O
*I inst_37:A1 I
*I inst_175:A1 I
*I inst_34:A2 I
*I inst_154:A1 I
*CAP
1 TAUGATE_5:Z 0.1921
2 net_125:1 0.4443
3 net_125:2 0.1288
4 inst_154:A1 0.3022
5 net_125:3 0.0282
6 net_125:4 0.3089
7 net_125:5 0.0253
8 net_125:6 0.3105
9 inst_175:A1 0.1881
10 net_125:7 0.3854
11 inst_34:A2 0.3580
12 net_125:8 0.2154
13 net_125:9 0.4921
14 net_125:10 0.1648
15 inst_37:A1 0.1855
*RES
2 TAUGATE_5:Z net_125:1 0.1405
3 net_125:1 net_125:2 0.0668
4 net_125:2 inst_154:A1 0.3699
5 net_125:1 net_125:3 0.2034
6 net_125:3 net_125:4 0.1592
7 net_125:4 net_125:5 0.3147
8 net_125:5 net_125:6 0.2761
9 net_125:6 inst_175:A1 0.3643
10 net_125:3 net_125:7 0.3774
11 net_125:7 inst_34:A2 0.2731
12 net_125:1 net_125:8 0.0112
13 net_125:8 net_125:9 0.3530
14 net_125:9 net_125:10 0.1128
15 net_125:10 inst_37:A1 0.2239
*END

*D_NET TAUNET_7 0.9170
*CONN
*I inst_65:ZN O
*I TAUGATE_7:A I
*CAP
1 inst_65:ZN 0.4230
2 TAUNET_7:1 0.3290
3 TAUNET_7:2 0.1620
4 TAUGATE_7:A 0.0029
*RES
2 inst_65:ZN TAUNET_7:1 0.2883
3 TAUNET_7:1 TAUNET_7:2 0.1903
4 TAUNET_7:2 TAUGATE_7:A 0.4381
*END

