*SPEF "IEEE 1481-1998"
*DESIGN "changes"
*DATE "Tue Dec 02 20:47:10 2014"
*VENDOR "TAU 2015 Contest"
*PROGRAM "Benchmark Parasitic Generator"
*VERSION "0.0"
*DESIGN_FLOW "NETLIST_TYPE_VERILOG"
*DIVIDER /
*DELIMITER :
*BUS_DELIMITER [ ]
*T_UNIT 1 PS
*C_UNIT 1 FF
*R_UNIT 1 KOHM
*L_UNIT 1 UH

*D_NET TAUNET_4 1.7439
*CONN
*I inst_51:ZN O
*I TAUGATE_4:A I
*CAP
1 inst_51:ZN 0.2611
2 TAUNET_4:1 0.4098
3 TAUNET_4:2 0.5009
4 TAUNET_4:3 0.2843
5 TAUGATE_4:A 0.2878
*RES
2 inst_51:ZN TAUNET_4:1 0.1659
3 TAUNET_4:1 TAUNET_4:2 0.2742
4 TAUNET_4:2 TAUNET_4:3 0.3494
5 TAUNET_4:3 TAUGATE_4:A 0.1485
*END

*D_NET TAUNET_2 1.3760
*CONN
*I inst_130:ZN O
*I TAUGATE_2:A I
*CAP
1 inst_130:ZN 0.2110
2 TAUNET_2:1 0.3070
3 TAUNET_2:2 0.3583
4 TAUNET_2:3 0.1395
5 TAUNET_2:4 0.0646
6 TAUNET_2:5 0.0794
7 TAUGATE_2:A 0.2161
*RES
2 inst_130:ZN TAUNET_2:1 0.1614
3 TAUNET_2:1 TAUNET_2:2 0.3312
4 TAUNET_2:2 TAUNET_2:3 0.3755
5 TAUNET_2:3 TAUNET_2:4 0.4644
6 TAUNET_2:4 TAUNET_2:5 0.4559
7 TAUNET_2:5 TAUGATE_2:A 0.4050
*END

*D_NET net_13 0.4849
*CONN
*I TAUGATE_3:Z O
*I inst_198:A3 I
*CAP
1 TAUGATE_3:Z 0.1670
2 net_13:1 0.2440
3 net_13:2 0.0332
4 inst_198:A3 0.0406
*RES
2 TAUGATE_3:Z net_13:1 0.2732
3 net_13:1 net_13:2 0.0073
4 net_13:2 inst_198:A3 0.1308
*END

*D_NET net_78 1.8161
*CONN
*I TAUGATE_2:Z O
*I inst_76:A2 I
*CAP
1 TAUGATE_2:Z 0.2909
2 net_78:1 0.0740
3 net_78:2 0.4871
4 net_78:3 0.4951
5 net_78:4 0.4125
6 inst_76:A2 0.0565
*RES
2 TAUGATE_2:Z net_78:1 0.1285
3 net_78:1 net_78:2 0.0292
4 net_78:2 net_78:3 0.2926
5 net_78:3 net_78:4 0.4507
6 net_78:4 inst_76:A2 0.3356
*END

*D_NET TAUNET_3 1.9602
*CONN
*I inst_96:ZN O
*I TAUGATE_3:A I
*CAP
1 inst_96:ZN 0.3845
2 TAUNET_3:1 0.3056
3 TAUNET_3:2 0.3464
4 TAUNET_3:3 0.0305
5 TAUNET_3:4 0.2383
6 TAUNET_3:5 0.4020
7 TAUGATE_3:A 0.2529
*RES
2 inst_96:ZN TAUNET_3:1 0.2665
3 TAUNET_3:1 TAUNET_3:2 0.4354
4 TAUNET_3:2 TAUNET_3:3 0.1977
5 TAUNET_3:3 TAUNET_3:4 0.0788
6 TAUNET_3:4 TAUNET_3:5 0.3276
7 TAUNET_3:5 TAUGATE_3:A 0.3833
*END

*D_NET n418gat 0.8670
*CONN
*I TAUGATE_4:Z O
*P n418gat O
*CAP
1 TAUGATE_4:Z 0.0716
2 n418gat:1 0.1922
3 n418gat:2 0.2805
4 n418gat:3 0.1322
5 n418gat 0.1905
*RES
2 TAUGATE_4:Z n418gat:1 0.4017
3 n418gat:1 n418gat:2 0.4680
4 n418gat:2 n418gat:3 0.2976
5 n418gat:3 n418gat 0.2331
*END

