*SPEF "IEEE 1481-1998"
*DESIGN "changes"
*DATE "Tue Dec 02 20:47:10 2014"
*VENDOR "TAU 2015 Contest"
*PROGRAM "Benchmark Parasitic Generator"
*VERSION "0.0"
*DESIGN_FLOW "NETLIST_TYPE_VERILOG"
*DIVIDER /
*DELIMITER :
*BUS_DELIMITER [ ]
*T_UNIT 1 PS
*C_UNIT 1 FF
*R_UNIT 1 KOHM
*L_UNIT 1 UH

*D_NET TAUNET_13 1.7439
*CONN
*I inst_130:ZN O
*I TAUGATE_13:A I
*CAP
1 inst_130:ZN 0.2611
2 TAUNET_13:1 0.4098
3 TAUNET_13:2 0.5009
4 TAUNET_13:3 0.2843
5 TAUGATE_13:A 0.2878
*RES
2 inst_130:ZN TAUNET_13:1 0.1659
3 TAUNET_13:1 TAUNET_13:2 0.2742
4 TAUNET_13:2 TAUNET_13:3 0.3494
5 TAUNET_13:3 TAUGATE_13:A 0.1485
*END

*D_NET TAUNET_12 1.3760
*CONN
*I inst_121:ZN O
*I TAUGATE_12:A I
*CAP
1 inst_121:ZN 0.2110
2 TAUNET_12:1 0.3070
3 TAUNET_12:2 0.3583
4 TAUNET_12:3 0.1395
5 TAUNET_12:4 0.0646
6 TAUNET_12:5 0.0794
7 TAUGATE_12:A 0.2161
*RES
2 inst_121:ZN TAUNET_12:1 0.1614
3 TAUNET_12:1 TAUNET_12:2 0.3312
4 TAUNET_12:2 TAUNET_12:3 0.3755
5 TAUNET_12:3 TAUNET_12:4 0.4644
6 TAUNET_12:4 TAUNET_12:5 0.4559
7 TAUNET_12:5 TAUGATE_12:A 0.4050
*END

*D_NET net_179 0.4849
*CONN
*I TAUGATE_52:Z O
*I inst_198:A4 I
*CAP
1 TAUGATE_52:Z 0.1670
2 net_179:1 0.2440
3 net_179:2 0.0332
4 inst_198:A4 0.0406
*RES
2 TAUGATE_52:Z net_179:1 0.2732
3 net_179:1 net_179:2 0.0073
4 net_179:2 inst_198:A4 0.1308
*END

*D_NET net_152 1.8161
*CONN
*I TAUGATE_27:Z O
*I inst_66:A4 I
*CAP
1 TAUGATE_27:Z 0.2909
2 net_152:1 0.0740
3 net_152:2 0.4871
4 net_152:3 0.4951
5 net_152:4 0.4125
6 inst_66:A4 0.0565
*RES
2 TAUGATE_27:Z net_152:1 0.1285
3 net_152:1 net_152:2 0.0292
4 net_152:2 net_152:3 0.2926
5 net_152:3 net_152:4 0.4507
6 net_152:4 inst_66:A4 0.3356
*END

*D_NET net_30 2.3760
*CONN
*I TAUGATE_47:Z O
*I inst_218:A2 I
*I inst_220:A2 I
*CAP
1 TAUGATE_47:Z 0.3845
2 net_30:1 0.3056
3 net_30:2 0.3464
4 net_30:3 0.0305
5 net_30:4 0.2383
6 net_30:5 0.4020
7 inst_220:A2 0.2529
8 net_30:6 0.2236
9 inst_218:A2 0.1922
*RES
2 TAUGATE_47:Z net_30:1 0.2665
3 net_30:1 net_30:2 0.4354
4 net_30:2 net_30:3 0.1977
5 net_30:3 net_30:4 0.0788
6 net_30:4 net_30:5 0.3276
7 net_30:5 inst_220:A2 0.3833
8 net_30:4 net_30:6 0.2805
9 net_30:6 inst_218:A2 0.1322
*END

*D_NET net_61 2.0360
*CONN
*I TAUGATE_35:Z O
*I inst_72:A3 I
*CAP
1 TAUGATE_35:Z 0.4017
2 net_61:1 0.2976
3 net_61:2 0.2331
4 net_61:3 0.2927
5 net_61:4 0.3943
6 net_61:5 0.2211
7 inst_72:A3 0.1955
*RES
2 TAUGATE_35:Z net_61:1 0.1868
3 net_61:1 net_61:2 0.4889
4 net_61:2 net_61:3 0.0703
5 net_61:3 net_61:4 0.3298
6 net_61:4 net_61:5 0.4131
7 net_61:5 inst_72:A3 0.3310
*END

*D_NET TAUNET_1 1.3534
*CONN
*I TAUGATE_56:Z O
*I TAUGATE_1:A I
*CAP
1 TAUGATE_56:Z 0.4792
2 TAUNET_1:1 0.0717
3 TAUNET_1:2 0.3990
4 TAUGATE_1:A 0.4035
*RES
2 TAUGATE_56:Z TAUNET_1:1 0.0219
3 TAUNET_1:1 TAUNET_1:2 0.0830
4 TAUNET_1:2 TAUGATE_1:A 0.4539
*END

*D_NET net_132 4.0262
*CONN
*I TAUGATE_38:Z O
*I inst_160:A2 I
*I inst_163:A2 I
*CAP
1 TAUGATE_38:Z 0.3196
2 net_132:1 0.3591
3 net_132:2 0.2780
4 net_132:3 0.2022
5 net_132:4 0.1593
6 net_132:5 0.4382
7 inst_160:A2 0.3498
8 net_132:6 0.3789
9 net_132:7 0.3545
10 net_132:8 0.1033
11 net_132:9 0.4316
12 net_132:10 0.1782
13 inst_163:A2 0.4734
*RES
2 TAUGATE_38:Z net_132:1 0.4055
3 net_132:1 net_132:2 0.4519
4 net_132:2 net_132:3 0.4658
5 net_132:3 net_132:4 0.3690
6 net_132:4 net_132:5 0.4019
7 net_132:5 inst_160:A2 0.0632
8 net_132:3 net_132:6 0.0376
9 net_132:6 net_132:7 0.0972
10 net_132:7 net_132:8 0.3594
11 net_132:8 net_132:9 0.0525
12 net_132:9 net_132:10 0.3248
13 net_132:10 inst_163:A2 0.2597
*END

*D_NET TAUNET_35 1.7670
*CONN
*I inst_115:ZN O
*I TAUGATE_35:A I
*CAP
1 inst_115:ZN 0.3840
2 TAUNET_35:1 0.3726
3 TAUNET_35:2 0.2980
4 TAUNET_35:3 0.2454
5 TAUGATE_35:A 0.4670
*RES
2 inst_115:ZN TAUNET_35:1 0.1921
3 TAUNET_35:1 TAUNET_35:2 0.1376
4 TAUNET_35:2 TAUNET_35:3 0.4443
5 TAUNET_35:3 TAUGATE_35:A 0.1288
*END

*D_NET net_99 0.9235
*CONN
*I TAUGATE_31:Z O
*I inst_157:A2 I
*CAP
1 TAUGATE_31:Z 0.1405
2 net_99:1 0.3699
3 inst_157:A2 0.4131
*RES
2 TAUGATE_31:Z net_99:1 0.4004
3 net_99:1 inst_157:A2 0.4814
*END

*D_NET n419gat 0.7257
*CONN
*I TAUGATE_10:Z O
*P n419gat O
*CAP
1 TAUGATE_10:Z 0.3915
2 n419gat:1 0.3089
3 n419gat 0.0253
*RES
2 TAUGATE_10:Z n419gat:1 0.3105
3 n419gat:1 n419gat 0.1881
*END

*D_NET net_46 1.4805
*CONN
*I TAUGATE_41:Z O
*I inst_18:B I
*CAP
1 TAUGATE_41:Z 0.1592
2 net_46:1 0.2761
3 net_46:2 0.3643
4 net_46:3 0.2288
5 net_46:4 0.0666
6 inst_18:B 0.3854
*RES
2 TAUGATE_41:Z net_46:1 0.3580
3 net_46:1 net_46:2 0.3774
4 net_46:2 net_46:3 0.2731
5 net_46:3 net_46:4 0.1525
6 net_46:4 inst_18:B 0.0518
*END

*D_NET net_129 2.1332
*CONN
*I TAUGATE_43:Z O
*I inst_158:A2 I
*I inst_168:A1 I
*CAP
1 TAUGATE_43:Z 0.2154
2 net_129:1 0.1648
3 net_129:2 0.1855
4 net_129:3 0.0112
5 net_129:4 0.3530
6 net_129:5 0.1128
7 inst_168:A1 0.2239
8 net_129:6 0.4381
9 net_129:7 0.3484
10 inst_158:A2 0.0801
*RES
2 TAUGATE_43:Z net_129:1 0.0917
3 net_129:1 net_129:2 0.4230
4 net_129:2 net_129:3 0.1494
5 net_129:3 net_129:4 0.3290
6 net_129:4 net_129:5 0.1620
7 net_129:5 inst_168:A1 0.0029
8 net_129:4 net_129:6 0.1392
9 net_129:6 net_129:7 0.1891
10 net_129:7 inst_158:A2 0.0464
*END

*D_NET net_23 1.0649
*CONN
*I TAUGATE_16:Z O
*I inst_10:A I
*CAP
1 TAUGATE_16:Z 0.0279
2 net_23:1 0.0649
3 net_23:2 0.0510
4 net_23:3 0.1600
5 net_23:4 0.1748
6 net_23:5 0.4787
7 inst_10:A 0.1076
*RES
2 TAUGATE_16:Z net_23:1 0.4606
3 net_23:1 net_23:2 0.3388
4 net_23:2 net_23:3 0.4657
5 net_23:3 net_23:4 0.3595
6 net_23:4 net_23:5 0.2471
7 net_23:5 inst_10:A 0.0832
*END

*D_NET net_12 0.8209
*CONN
*I TAUGATE_17:Z O
*I inst_62:A3 I
*CAP
1 TAUGATE_17:Z 0.3736
2 net_12:1 0.3644
3 inst_62:A3 0.0829
*RES
2 TAUGATE_17:Z net_12:1 0.1977
3 net_12:1 inst_62:A3 0.4694
*END

*D_NET net_53 2.0853
*CONN
*I TAUGATE_14:Z O
*I inst_193:A4 I
*CAP
1 TAUGATE_14:Z 0.3882
2 net_53:1 0.0413
3 net_53:2 0.4651
4 net_53:3 0.4065
5 net_53:4 0.3164
6 net_53:5 0.3513
7 inst_193:A4 0.1165
*RES
2 TAUGATE_14:Z net_53:1 0.0986
3 net_53:1 net_53:2 0.2243
4 net_53:2 net_53:3 0.1286
5 net_53:3 net_53:4 0.4269
6 net_53:4 net_53:5 0.2482
7 net_53:5 inst_193:A4 0.2195
*END

*D_NET TAUNET_46 1.7569
*CONN
*P n86gat I
*I TAUGATE_46:A I
*CAP
1 n86gat 0.4091
2 TAUNET_46:1 0.3587
3 TAUNET_46:2 0.1869
4 TAUNET_46:3 0.4974
5 TAUGATE_46:A 0.3047
*RES
2 n86gat TAUNET_46:1 0.1200
3 TAUNET_46:1 TAUNET_46:2 0.4969
4 TAUNET_46:2 TAUNET_46:3 0.1210
5 TAUNET_46:3 TAUGATE_46:A 0.1733
*END

*D_NET net_122 4.0440
*CONN
*I TAUGATE_32:Z O
*I inst_33:A2 I
*I inst_153:A1 I
*I inst_166:A1 I
*I inst_39:A1 I
*CAP
1 TAUGATE_32:Z 0.0283
2 net_122:1 0.2945
3 net_122:2 0.3177
4 net_122:3 0.2101
5 inst_33:A2 0.3390
6 net_122:4 0.3900
7 net_122:5 0.0557
8 net_122:6 0.1253
9 inst_153:A1 0.2716
10 net_122:7 0.2135
11 net_122:8 0.0419
12 net_122:9 0.2773
13 inst_166:A1 0.0903
14 net_122:10 0.2443
15 net_122:11 0.2458
16 net_122:12 0.3734
17 net_122:13 0.1567
18 net_122:14 0.1247
19 inst_39:A1 0.2439
*RES
2 TAUGATE_32:Z net_122:1 0.2046
3 net_122:1 net_122:2 0.3404
4 net_122:2 net_122:3 0.1317
5 net_122:3 inst_33:A2 0.3617
6 net_122:3 net_122:4 0.3735
7 net_122:4 net_122:5 0.1079
8 net_122:5 net_122:6 0.3323
9 net_122:6 inst_153:A1 0.2907
10 net_122:6 net_122:7 0.0485
11 net_122:7 net_122:8 0.4602
12 net_122:8 net_122:9 0.4262
13 net_122:9 inst_166:A1 0.2009
14 net_122:8 net_122:10 0.2588
15 net_122:10 net_122:11 0.4474
16 net_122:11 net_122:12 0.3528
17 net_122:12 net_122:13 0.0472
18 net_122:13 net_122:14 0.4436
19 net_122:14 inst_39:A1 0.1981
*END

*D_NET TAUNET_24 1.5484
*CONN
*I inst_197:ZN O
*I TAUGATE_24:A I
*CAP
1 inst_197:ZN 0.0169
2 TAUNET_24:1 0.4684
3 TAUNET_24:2 0.2490
4 TAUNET_24:3 0.0579
5 TAUNET_24:4 0.0423
6 TAUNET_24:5 0.2861
7 TAUGATE_24:A 0.4278
*RES
2 inst_197:ZN TAUNET_24:1 0.3875
3 TAUNET_24:1 TAUNET_24:2 0.4796
4 TAUNET_24:2 TAUNET_24:3 0.3740
5 TAUNET_24:3 TAUNET_24:4 0.1554
6 TAUNET_24:4 TAUNET_24:5 0.0209
7 TAUNET_24:5 TAUGATE_24:A 0.4380
*END

*D_NET net_25 1.7573
*CONN
*I TAUGATE_20:Z O
*I inst_11:A I
*CAP
1 TAUGATE_20:Z 0.4990
2 net_25:1 0.1115
3 net_25:2 0.4947
4 net_25:3 0.3666
5 inst_11:A 0.2854
*RES
2 TAUGATE_20:Z net_25:1 0.4464
3 net_25:1 net_25:2 0.2438
4 net_25:2 net_25:3 0.2969
5 net_25:3 inst_11:A 0.3091
*END

*D_NET TAUNET_16 1.4812
*CONN
*I inst_1:Z O
*I TAUGATE_16:A I
*CAP
1 inst_1:Z 0.2264
2 TAUNET_16:1 0.2044
3 TAUNET_16:2 0.1531
4 TAUNET_16:3 0.3886
5 TAUNET_16:4 0.2618
6 TAUGATE_16:A 0.2468
*RES
2 inst_1:Z TAUNET_16:1 0.4002
3 TAUNET_16:1 TAUNET_16:2 0.3652
4 TAUNET_16:2 TAUNET_16:3 0.1857
5 TAUNET_16:3 TAUNET_16:4 0.0562
6 TAUNET_16:4 TAUGATE_16:A 0.0882
*END

*D_NET TAUNET_31 0.8319
*CONN
*I inst_188:ZN O
*I TAUGATE_31:A I
*CAP
1 inst_188:ZN 0.2715
2 TAUNET_31:1 0.4145
3 TAUGATE_31:A 0.1459
*RES
2 inst_188:ZN TAUNET_31:1 0.1130
3 TAUNET_31:1 TAUGATE_31:A 0.1026
*END

*D_NET TAUNET_25 0.4701
*CONN
*I inst_82:ZN O
*I TAUGATE_25:A I
*CAP
1 inst_82:ZN 0.1095
2 TAUNET_25:1 0.1417
3 TAUGATE_25:A 0.2190
*RES
2 inst_82:ZN TAUNET_25:1 0.4826
3 TAUNET_25:1 TAUGATE_25:A 0.1138
*END

*D_NET TAUNET_27 1.1966
*CONN
*I inst_163:ZN O
*I TAUGATE_27:A I
*CAP
1 inst_163:ZN 0.3663
2 TAUNET_27:1 0.0526
3 TAUNET_27:2 0.2388
4 TAUNET_27:3 0.1787
5 TAUGATE_27:A 0.3603
*RES
2 inst_163:ZN TAUNET_27:1 0.0603
3 TAUNET_27:1 TAUNET_27:2 0.0863
4 TAUNET_27:2 TAUNET_27:3 0.3102
5 TAUNET_27:3 TAUGATE_27:A 0.1239
*END

*D_NET net_194 1.6234
*CONN
*I TAUGATE_29:Z O
*I inst_80:A1 I
*CAP
1 TAUGATE_29:Z 0.0055
2 net_194:1 0.2412
3 net_194:2 0.3995
4 net_194:3 0.4441
5 net_194:4 0.4218
6 net_194:5 0.0848
7 inst_80:A1 0.0266
*RES
2 TAUGATE_29:Z net_194:1 0.0274
3 net_194:1 net_194:2 0.4218
4 net_194:2 net_194:3 0.2061
5 net_194:3 net_194:4 0.2110
6 net_194:4 net_194:5 0.4583
7 net_194:5 inst_80:A1 0.3985
*END

*D_NET TAUNET_28 1.9898
*CONN
*I inst_160:ZN O
*I TAUGATE_28:A I
*CAP
1 inst_160:ZN 0.0725
2 TAUNET_28:1 0.3124
3 TAUNET_28:2 0.3685
4 TAUNET_28:3 0.4317
5 TAUNET_28:4 0.1801
6 TAUNET_28:5 0.2826
7 TAUGATE_28:A 0.3420
*RES
2 inst_160:ZN TAUNET_28:1 0.0965
3 TAUNET_28:1 TAUNET_28:2 0.2555
4 TAUNET_28:2 TAUNET_28:3 0.1304
5 TAUNET_28:3 TAUNET_28:4 0.3675
6 TAUNET_28:4 TAUNET_28:5 0.4634
7 TAUNET_28:5 TAUGATE_28:A 0.2869
*END

*D_NET TAUNET_57 0.5511
*CONN
*I inst_39:ZN O
*I TAUGATE_57:A I
*CAP
1 inst_39:ZN 0.1182
2 TAUNET_57:1 0.0608
3 TAUGATE_57:A 0.3721
*RES
2 inst_39:ZN TAUNET_57:1 0.4648
3 TAUNET_57:1 TAUGATE_57:A 0.2376
*END

*D_NET net_147 1.2804
*CONN
*I TAUGATE_53:Z O
*I inst_19:A I
*I inst_45:A2 I
*CAP
1 TAUGATE_53:Z 0.3081
2 net_147:1 0.0264
3 net_147:2 0.2502
4 inst_19:A 0.2506
5 net_147:3 0.2747
6 inst_45:A2 0.1704
*RES
2 TAUGATE_53:Z net_147:1 0.4486
3 net_147:1 net_147:2 0.0641
4 net_147:2 inst_19:A 0.0138
5 net_147:1 net_147:3 0.2303
6 net_147:3 inst_45:A2 0.0121
*END

*D_NET n261gat 1.6610
*CONN
*I TAUGATE_54:Z O
*I inst_214:A1 I
*I inst_19:B I
*CAP
1 TAUGATE_54:Z 0.0267
2 n261gat:1 0.1079
3 n261gat:2 0.3621
4 inst_214:A1 0.1254
5 n261gat:3 0.3990
6 n261gat:4 0.0185
7 n261gat:5 0.3777
8 inst_19:B 0.2437
*RES
2 TAUGATE_54:Z n261gat:1 0.3490
3 n261gat:1 n261gat:2 0.4751
4 n261gat:2 inst_214:A1 0.3195
5 n261gat:1 n261gat:3 0.3641
6 n261gat:3 n261gat:4 0.1411
7 n261gat:4 n261gat:5 0.2452
8 n261gat:5 inst_19:B 0.2723
*END

*D_NET TAUNET_37 0.3445
*CONN
*I inst_148:ZN O
*I TAUGATE_37:A I
*CAP
1 inst_148:ZN 0.2449
2 TAUNET_37:1 0.0917
3 TAUGATE_37:A 0.0078
*RES
2 inst_148:ZN TAUNET_37:1 0.0227
3 TAUNET_37:1 TAUGATE_37:A 0.0264
*END

*D_NET TAUNET_32 0.9773
*CONN
*I inst_138:ZN O
*I TAUGATE_32:A I
*CAP
1 inst_138:ZN 0.1906
2 TAUNET_32:1 0.0937
3 TAUNET_32:2 0.2944
4 TAUGATE_32:A 0.3987
*RES
2 inst_138:ZN TAUNET_32:1 0.0209
3 TAUNET_32:1 TAUNET_32:2 0.1182
4 TAUNET_32:2 TAUGATE_32:A 0.1067
*END

*D_NET TAUNET_38 2.0282
*CONN
*I inst_59:ZN O
*I TAUGATE_38:A I
*CAP
1 inst_59:ZN 0.3672
2 TAUNET_38:1 0.1157
3 TAUNET_38:2 0.1901
4 TAUNET_38:3 0.2138
5 TAUNET_38:4 0.5008
6 TAUNET_38:5 0.2979
7 TAUGATE_38:A 0.3428
*RES
2 inst_59:ZN TAUNET_38:1 0.2325
3 TAUNET_38:1 TAUNET_38:2 0.2733
4 TAUNET_38:2 TAUNET_38:3 0.1266
5 TAUNET_38:3 TAUNET_38:4 0.3814
6 TAUNET_38:4 TAUNET_38:5 0.1363
7 TAUNET_38:5 TAUGATE_38:A 0.3277
*END

*D_NET net_101 1.7680
*CONN
*I TAUGATE_37:Z O
*I inst_76:A3 I
*CAP
1 TAUGATE_37:Z 0.4503
2 net_101:1 0.1603
3 net_101:2 0.4423
4 net_101:3 0.1159
5 net_101:4 0.4527
6 inst_76:A3 0.1465
*RES
2 TAUGATE_37:Z net_101:1 0.1463
3 net_101:1 net_101:2 0.4621
4 net_101:2 net_101:3 0.4065
5 net_101:3 net_101:4 0.0227
6 net_101:4 inst_76:A3 0.2236
*END

*D_NET net_32 2.9080
*CONN
*I TAUGATE_15:Z O
*I inst_52:A2 I
*I inst_51:A2 I
*CAP
1 TAUGATE_15:Z 0.0715
2 net_32:1 0.1861
3 net_32:2 0.4367
4 inst_51:A2 0.3452
5 net_32:3 0.4978
6 net_32:4 0.2563
7 net_32:5 0.2595
8 net_32:6 0.2603
9 net_32:7 0.2874
10 inst_52:A2 0.3072
*RES
2 TAUGATE_15:Z net_32:1 0.0313
3 net_32:1 net_32:2 0.1217
4 net_32:2 inst_51:A2 0.0111
5 net_32:1 net_32:3 0.2768
6 net_32:3 net_32:4 0.1679
7 net_32:4 net_32:5 0.2053
8 net_32:5 net_32:6 0.2140
9 net_32:6 net_32:7 0.3306
10 net_32:7 inst_52:A2 0.1569
*END

*D_NET TAUNET_40 2.5545
*CONN
*I inst_167:ZN O
*I TAUGATE_40:A I
*CAP
1 inst_167:ZN 0.2138
2 TAUNET_40:1 0.3806
3 TAUNET_40:2 0.4946
4 TAUNET_40:3 0.4608
5 TAUNET_40:4 0.4692
6 TAUNET_40:5 0.4766
7 TAUGATE_40:A 0.0589
*RES
2 inst_167:ZN TAUNET_40:1 0.0962
3 TAUNET_40:1 TAUNET_40:2 0.2415
4 TAUNET_40:2 TAUNET_40:3 0.1750
5 TAUNET_40:3 TAUNET_40:4 0.4103
6 TAUNET_40:4 TAUNET_40:5 0.0845
7 TAUNET_40:5 TAUGATE_40:A 0.1888
*END

*D_NET TAUNET_20 1.2719
*CONN
*I inst_6:ZN O
*I TAUGATE_20:A I
*CAP
1 inst_6:ZN 0.1762
2 TAUNET_20:1 0.0806
3 TAUNET_20:2 0.0407
4 TAUNET_20:3 0.2069
5 TAUNET_20:4 0.0491
6 TAUNET_20:5 0.4137
7 TAUGATE_20:A 0.3046
*RES
2 inst_6:ZN TAUNET_20:1 0.2987
3 TAUNET_20:1 TAUNET_20:2 0.2640
4 TAUNET_20:2 TAUNET_20:3 0.1831
5 TAUNET_20:3 TAUNET_20:4 0.4110
6 TAUNET_20:4 TAUNET_20:5 0.0191
7 TAUNET_20:5 TAUGATE_20:A 0.3538
*END

*D_NET net_111 3.9473
*CONN
*I TAUGATE_48:Z O
*I inst_151:A1 I
*I inst_36:A2 I
*I inst_178:A1 I
*CAP
1 TAUGATE_48:Z 0.3629
2 net_111:1 0.2007
3 inst_178:A1 0.2971
4 net_111:2 0.2002
5 net_111:3 0.2573
6 net_111:4 0.3761
7 net_111:5 0.0616
8 net_111:6 0.4298
9 inst_36:A2 0.2857
10 net_111:7 0.3095
11 net_111:8 0.4895
12 net_111:9 0.4033
13 inst_151:A1 0.2734
*RES
2 TAUGATE_48:Z net_111:1 0.4025
3 net_111:1 inst_178:A1 0.5010
4 net_111:1 net_111:2 0.2634
5 net_111:2 net_111:3 0.0470
6 net_111:3 net_111:4 0.0745
7 net_111:4 net_111:5 0.1738
8 net_111:5 net_111:6 0.4336
9 net_111:6 inst_36:A2 0.4556
10 net_111:2 net_111:7 0.3461
11 net_111:7 net_111:8 0.3729
12 net_111:8 net_111:9 0.0418
13 net_111:9 inst_151:A1 0.3671
*END

*D_NET net_40 1.1766
*CONN
*I TAUGATE_11:Z O
*I inst_16:A I
*CAP
1 TAUGATE_11:Z 0.1458
2 net_40:1 0.0683
3 net_40:2 0.2135
4 net_40:3 0.4484
5 net_40:4 0.1379
6 net_40:5 0.1139
7 inst_16:A 0.0489
*RES
2 TAUGATE_11:Z net_40:1 0.0861
3 net_40:1 net_40:2 0.1477
4 net_40:2 net_40:3 0.4806
5 net_40:3 net_40:4 0.3473
6 net_40:4 net_40:5 0.1114
7 net_40:5 inst_16:A 0.0198
*END

*D_NET n26gat 1.3546
*CONN
*I TAUGATE_23:Z O
*I inst_87:A2 I
*CAP
1 TAUGATE_23:Z 0.1100
2 n26gat:1 0.3290
3 n26gat:2 0.1592
4 n26gat:3 0.4236
5 inst_87:A2 0.3328
*RES
2 TAUGATE_23:Z n26gat:1 0.1906
3 n26gat:1 n26gat:2 0.5003
4 n26gat:2 n26gat:3 0.4347
5 n26gat:3 inst_87:A2 0.3044
*END

*D_NET TAUNET_14 1.5228
*CONN
*I inst_213:ZN O
*I TAUGATE_14:A I
*CAP
1 inst_213:ZN 0.0096
2 TAUNET_14:1 0.2377
3 TAUNET_14:2 0.2571
4 TAUNET_14:3 0.3610
5 TAUNET_14:4 0.0042
6 TAUNET_14:5 0.2690
7 TAUGATE_14:A 0.3841
*RES
2 inst_213:ZN TAUNET_14:1 0.3400
3 TAUNET_14:1 TAUNET_14:2 0.2352
4 TAUNET_14:2 TAUNET_14:3 0.3112
5 TAUNET_14:3 TAUNET_14:4 0.1345
6 TAUNET_14:4 TAUNET_14:5 0.4134
7 TAUNET_14:5 TAUGATE_14:A 0.0741
*END

*D_NET net_69 0.9047
*CONN
*I TAUGATE_36:Z O
*I inst_65:A4 I
*CAP
1 TAUGATE_36:Z 0.4891
2 net_69:1 0.2122
3 inst_65:A4 0.2034
*RES
2 TAUGATE_36:Z net_69:1 0.1253
3 net_69:1 inst_65:A4 0.2112
*END

*D_NET net_161 0.7145
*CONN
*I TAUGATE_18:Z O
*I inst_167:A2 I
*CAP
1 TAUGATE_18:Z 0.1106
2 net_161:1 0.2644
3 inst_167:A2 0.3395
*RES
2 TAUGATE_18:Z net_161:1 0.4160
3 net_161:1 inst_167:A2 0.1311
*END

*D_NET TAUNET_49 0.5652
*CONN
*I inst_150:ZN O
*I TAUGATE_49:A I
*CAP
1 inst_150:ZN 0.0535
2 TAUNET_49:1 0.2939
3 TAUGATE_49:A 0.2177
*RES
2 inst_150:ZN TAUNET_49:1 0.0520
3 TAUNET_49:1 TAUGATE_49:A 0.1787
*END

*D_NET net_68 1.2588
*CONN
*I TAUGATE_12:Z O
*I inst_64:A4 I
*CAP
1 TAUGATE_12:Z 0.2308
2 net_68:1 0.4154
3 net_68:2 0.4205
4 inst_64:A4 0.1921
*RES
2 TAUGATE_12:Z net_68:1 0.3303
3 net_68:1 net_68:2 0.0500
4 net_68:2 inst_64:A4 0.3450
*END

*D_NET TAUNET_50 1.3816
*CONN
*I inst_91:ZN O
*I TAUGATE_50:A I
*CAP
1 inst_91:ZN 0.2397
2 TAUNET_50:1 0.0450
3 TAUNET_50:2 0.3586
4 TAUNET_50:3 0.1804
5 TAUNET_50:4 0.2132
6 TAUGATE_50:A 0.3448
*RES
2 inst_91:ZN TAUNET_50:1 0.2539
3 TAUNET_50:1 TAUNET_50:2 0.0169
4 TAUNET_50:2 TAUNET_50:3 0.2910
5 TAUNET_50:3 TAUNET_50:4 0.3418
6 TAUNET_50:4 TAUGATE_50:A 0.0277
*END

*D_NET TAUNET_23 0.7138
*CONN
*P n26gat I
*I TAUGATE_23:A I
*CAP
1 n26gat 0.0700
2 TAUNET_23:1 0.4916
3 TAUNET_23:2 0.0258
4 TAUNET_23:3 0.0722
5 TAUNET_23:4 0.0268
6 TAUGATE_23:A 0.0274
*RES
2 n26gat TAUNET_23:1 0.0955
3 TAUNET_23:1 TAUNET_23:2 0.0758
4 TAUNET_23:2 TAUNET_23:3 0.0730
5 TAUNET_23:3 TAUNET_23:4 0.2996
6 TAUNET_23:4 TAUGATE_23:A 0.1500
*END

*D_NET TAUNET_39 1.1459
*CONN
*I inst_141:ZN O
*I TAUGATE_39:A I
*CAP
1 inst_141:ZN 0.0605
2 TAUNET_39:1 0.4347
3 TAUNET_39:2 0.2976
4 TAUGATE_39:A 0.3531
*RES
2 inst_141:ZN TAUNET_39:1 0.0316
3 TAUNET_39:1 TAUNET_39:2 0.1823
4 TAUNET_39:2 TAUGATE_39:A 0.0755
*END

*D_NET net_95 2.4382
*CONN
*I TAUGATE_55:Z O
*I inst_146:A2 I
*I inst_30:A2 I
*I inst_143:A2 I
*CAP
1 TAUGATE_55:Z 0.3515
2 net_95:1 0.4269
3 net_95:2 0.0493
4 net_95:3 0.0341
5 inst_30:A2 0.3020
6 net_95:4 0.3051
7 inst_146:A2 0.1197
8 net_95:5 0.3150
9 net_95:6 0.0137
10 net_95:7 0.2108
11 inst_143:A2 0.3101
*RES
2 TAUGATE_55:Z net_95:1 0.3389
3 net_95:1 net_95:2 0.4000
4 net_95:2 net_95:3 0.0188
5 net_95:3 inst_30:A2 0.4709
6 net_95:2 net_95:4 0.2956
7 net_95:4 inst_146:A2 0.2210
8 net_95:1 net_95:5 0.0161
9 net_95:5 net_95:6 0.2047
10 net_95:6 net_95:7 0.3729
11 net_95:7 inst_143:A2 0.0610
*END

*D_NET TAUNET_51 1.7628
*CONN
*P n189gat I
*I TAUGATE_51:A I
*CAP
1 n189gat 0.2910
2 TAUNET_51:1 0.3083
3 TAUNET_51:2 0.1250
4 TAUNET_51:3 0.3526
5 TAUNET_51:4 0.3715
6 TAUGATE_51:A 0.3144
*RES
2 n189gat TAUNET_51:1 0.3618
3 TAUNET_51:1 TAUNET_51:2 0.0820
4 TAUNET_51:2 TAUNET_51:3 0.2174
5 TAUNET_51:3 TAUNET_51:4 0.3638
6 TAUNET_51:4 TAUGATE_51:A 0.4097
*END

*D_NET n189gat 3.5294
*CONN
*I TAUGATE_51:Z O
*I inst_139:A1 I
*I inst_55:A1 I
*I inst_5:B I
*I inst_128:A1 I
*CAP
1 TAUGATE_51:Z 0.4080
2 n189gat:1 0.4981
3 n189gat:2 0.3134
4 n189gat:3 0.4059
5 n189gat:4 0.1396
6 inst_55:A1 0.0910
7 n189gat:5 0.0712
8 n189gat:6 0.0044
9 n189gat:7 0.1986
10 inst_139:A1 0.0476
11 n189gat:8 0.2784
12 n189gat:9 0.2008
13 inst_5:B 0.3776
14 n189gat:10 0.1138
15 inst_128:A1 0.3809
*RES
2 TAUGATE_51:Z n189gat:1 0.1278
3 n189gat:1 n189gat:2 0.3093
4 n189gat:2 n189gat:3 0.3342
5 n189gat:3 n189gat:4 0.2150
6 n189gat:4 inst_55:A1 0.0109
7 n189gat:2 n189gat:5 0.0521
8 n189gat:5 n189gat:6 0.0546
9 n189gat:6 n189gat:7 0.0043
10 n189gat:7 inst_139:A1 0.2737
11 n189gat:4 n189gat:8 0.2937
12 n189gat:8 n189gat:9 0.0093
13 n189gat:9 inst_5:B 0.2822
14 n189gat:9 n189gat:10 0.3567
15 n189gat:10 inst_128:A1 0.3242
*END

*D_NET net_78 1.2868
*CONN
*I TAUGATE_19:Z O
*I inst_76:A2 I
*CAP
1 TAUGATE_19:Z 0.3863
2 net_78:1 0.1037
3 net_78:2 0.3572
4 net_78:3 0.2211
5 inst_76:A2 0.2185
*RES
2 TAUGATE_19:Z net_78:1 0.2266
3 net_78:1 net_78:2 0.2538
4 net_78:2 net_78:3 0.1297
5 net_78:3 inst_76:A2 0.4791
*END

*D_NET TAUNET_19 1.8977
*CONN
*I TAUGATE_2:Z O
*I TAUGATE_19:A I
*CAP
1 TAUGATE_2:Z 0.2444
2 TAUNET_19:1 0.3737
3 TAUNET_19:2 0.3015
4 TAUNET_19:3 0.1830
5 TAUNET_19:4 0.3035
6 TAUNET_19:5 0.4053
7 TAUGATE_19:A 0.0863
*RES
2 TAUGATE_2:Z TAUNET_19:1 0.2362
3 TAUNET_19:1 TAUNET_19:2 0.1365
4 TAUNET_19:2 TAUNET_19:3 0.0277
5 TAUNET_19:3 TAUNET_19:4 0.4263
6 TAUNET_19:4 TAUNET_19:5 0.2912
7 TAUNET_19:5 TAUGATE_19:A 0.1111
*END

*D_NET TAUNET_34 0.6240
*CONN
*I inst_96:ZN O
*I TAUGATE_34:A I
*CAP
1 inst_96:ZN 0.0512
2 TAUNET_34:1 0.0984
3 TAUNET_34:2 0.0368
4 TAUGATE_34:A 0.4376
*RES
2 inst_96:ZN TAUNET_34:1 0.1423
3 TAUNET_34:1 TAUNET_34:2 0.1283
4 TAUNET_34:2 TAUGATE_34:A 0.1146
*END

*D_NET net_164 2.0583
*CONN
*I TAUGATE_40:Z O
*I inst_195:A4 I
*CAP
1 TAUGATE_40:Z 0.4610
2 net_164:1 0.2776
3 net_164:2 0.3781
4 net_164:3 0.3766
5 net_164:4 0.0185
6 net_164:5 0.3877
7 inst_195:A4 0.1588
*RES
2 TAUGATE_40:Z net_164:1 0.3738
3 net_164:1 net_164:2 0.4556
4 net_164:2 net_164:3 0.1835
5 net_164:3 net_164:4 0.0020
6 net_164:4 net_164:5 0.2614
7 net_164:5 inst_195:A4 0.3010
*END

*D_NET TAUNET_54 1.0435
*CONN
*P n261gat I
*I TAUGATE_54:A I
*CAP
1 n261gat 0.4372
2 TAUNET_54:1 0.1153
3 TAUNET_54:2 0.3810
4 TAUGATE_54:A 0.1100
*RES
2 n261gat TAUNET_54:1 0.1662
3 TAUNET_54:1 TAUNET_54:2 0.3178
4 TAUNET_54:2 TAUGATE_54:A 0.2541
*END

*D_NET TAUNET_44 1.5558
*CONN
*I inst_199:ZN O
*I TAUGATE_44:A I
*CAP
1 inst_199:ZN 0.4625
2 TAUNET_44:1 0.0981
3 TAUNET_44:2 0.3461
4 TAUNET_44:3 0.2382
5 TAUGATE_44:A 0.4109
*RES
2 inst_199:ZN TAUNET_44:1 0.0945
3 TAUNET_44:1 TAUNET_44:2 0.2326
4 TAUNET_44:2 TAUNET_44:3 0.0121
5 TAUNET_44:3 TAUGATE_44:A 0.2674
*END

*D_NET n85gat 1.0180
*CONN
*I TAUGATE_33:Z O
*I inst_216:A1 I
*CAP
1 TAUGATE_33:Z 0.0414
2 n85gat:1 0.1970
3 n85gat:2 0.0138
4 n85gat:3 0.4527
5 inst_216:A1 0.3131
*RES
2 TAUGATE_33:Z n85gat:1 0.4392
3 n85gat:1 n85gat:2 0.4048
4 n85gat:2 n85gat:3 0.0368
5 n85gat:3 inst_216:A1 0.3283
*END

*D_NET TAUNET_43 1.5830
*CONN
*I inst_31:ZN O
*I TAUGATE_43:A I
*CAP
1 inst_31:ZN 0.4199
2 TAUNET_43:1 0.3306
3 TAUNET_43:2 0.3042
4 TAUNET_43:3 0.1317
5 TAUNET_43:4 0.1481
6 TAUGATE_43:A 0.2485
*RES
2 inst_31:ZN TAUNET_43:1 0.2201
3 TAUNET_43:1 TAUNET_43:2 0.2966
4 TAUNET_43:2 TAUNET_43:3 0.3013
5 TAUNET_43:3 TAUNET_43:4 0.0758
6 TAUNET_43:4 TAUGATE_43:A 0.0262
*END

*D_NET TAUNET_56 0.4260
*CONN
*I inst_56:ZN O
*I TAUGATE_56:A I
*CAP
1 inst_56:ZN 0.0656
2 TAUNET_56:1 0.0047
3 TAUNET_56:2 0.1418
4 TAUGATE_56:A 0.2138
*RES
2 inst_56:ZN TAUNET_56:1 0.3805
3 TAUNET_56:1 TAUNET_56:2 0.2523
4 TAUNET_56:2 TAUGATE_56:A 0.0497
*END

*D_NET TAUNET_55 1.3598
*CONN
*I inst_64:ZN O
*I TAUGATE_55:A I
*CAP
1 inst_64:ZN 0.3913
2 TAUNET_55:1 0.3201
3 TAUNET_55:2 0.0320
4 TAUNET_55:3 0.2786
5 TAUGATE_55:A 0.3378
*RES
2 inst_64:ZN TAUNET_55:1 0.4364
3 TAUNET_55:1 TAUNET_55:2 0.2454
4 TAUNET_55:2 TAUNET_55:3 0.4527
5 TAUNET_55:3 TAUGATE_55:A 0.2663
*END

*D_NET TAUNET_11 1.5865
*CONN
*I inst_11:ZN O
*I TAUGATE_11:A I
*CAP
1 inst_11:ZN 0.1740
2 TAUNET_11:1 0.3351
3 TAUNET_11:2 0.4105
4 TAUNET_11:3 0.3004
5 TAUGATE_11:A 0.3665
*RES
2 inst_11:ZN TAUNET_11:1 0.1341
3 TAUNET_11:1 TAUNET_11:2 0.0859
4 TAUNET_11:2 TAUNET_11:3 0.1706
5 TAUNET_11:3 TAUGATE_11:A 0.3812
*END

*D_NET net_1 0.4838
*CONN
*I TAUGATE_25:Z O
*I inst_194:A3 I
*CAP
1 TAUGATE_25:Z 0.1227
2 net_1:1 0.0059
3 inst_194:A3 0.3552
*RES
2 TAUGATE_25:Z net_1:1 0.3839
3 net_1:1 inst_194:A3 0.1840
*END

*D_NET TAUNET_33 2.5126
*CONN
*P n85gat I
*I TAUGATE_33:A I
*CAP
1 n85gat 0.3573
2 TAUNET_33:1 0.3575
3 TAUNET_33:2 0.1715
4 TAUNET_33:3 0.3050
5 TAUNET_33:4 0.3594
6 TAUNET_33:5 0.4902
7 TAUGATE_33:A 0.4716
*RES
2 n85gat TAUNET_33:1 0.2112
3 TAUNET_33:1 TAUNET_33:2 0.1762
4 TAUNET_33:2 TAUNET_33:3 0.1166
5 TAUNET_33:3 TAUNET_33:4 0.1660
6 TAUNET_33:4 TAUNET_33:5 0.2177
7 TAUNET_33:5 TAUGATE_33:A 0.2908
*END

*D_NET net_92 1.2533
*CONN
*I TAUGATE_39:Z O
*I inst_79:A3 I
*CAP
1 TAUGATE_39:Z 0.3308
2 net_92:1 0.4669
3 net_92:2 0.1932
4 net_92:3 0.0675
5 net_92:4 0.0053
6 net_92:5 0.1459
7 inst_79:A3 0.0437
*RES
2 TAUGATE_39:Z net_92:1 0.4598
3 net_92:1 net_92:2 0.3838
4 net_92:2 net_92:3 0.2033
5 net_92:3 net_92:4 0.3263
6 net_92:4 net_92:5 0.4574
7 net_92:5 inst_79:A3 0.4683
*END

*D_NET net_103 1.4761
*CONN
*I TAUGATE_49:Z O
*I inst_67:A4 I
*CAP
1 TAUGATE_49:Z 0.4873
2 net_103:1 0.4800
3 net_103:2 0.4518
4 inst_67:A4 0.0570
*RES
2 TAUGATE_49:Z net_103:1 0.4909
3 net_103:1 net_103:2 0.0572
4 net_103:2 inst_67:A4 0.5008
*END

*D_NET TAUNET_22 2.4403
*CONN
*I inst_132:ZN O
*I TAUGATE_22:A I
*CAP
1 inst_132:ZN 0.2457
2 TAUNET_22:1 0.2594
3 TAUNET_22:2 0.3565
4 TAUNET_22:3 0.4074
5 TAUNET_22:4 0.4309
6 TAUNET_22:5 0.4474
7 TAUGATE_22:A 0.2931
*RES
2 inst_132:ZN TAUNET_22:1 0.2848
3 TAUNET_22:1 TAUNET_22:2 0.2246
4 TAUNET_22:2 TAUNET_22:3 0.3320
5 TAUNET_22:3 TAUNET_22:4 0.3870
6 TAUNET_22:4 TAUNET_22:5 0.3663
7 TAUNET_22:5 TAUGATE_22:A 0.1512
*END

*D_NET TAUNET_41 2.3961
*CONN
*I inst_13:ZN O
*I TAUGATE_41:A I
*CAP
1 inst_13:ZN 0.4493
2 TAUNET_41:1 0.2866
3 TAUNET_41:2 0.1873
4 TAUNET_41:3 0.1599
5 TAUNET_41:4 0.3589
6 TAUNET_41:5 0.4697
7 TAUGATE_41:A 0.4844
*RES
2 inst_13:ZN TAUNET_41:1 0.0401
3 TAUNET_41:1 TAUNET_41:2 0.2861
4 TAUNET_41:2 TAUNET_41:3 0.1883
5 TAUNET_41:3 TAUNET_41:4 0.3075
6 TAUNET_41:4 TAUNET_41:5 0.0604
7 TAUNET_41:5 TAUGATE_41:A 0.3908
*END

*D_NET TAUNET_30 1.0274
*CONN
*I inst_52:ZN O
*I TAUGATE_30:A I
*CAP
1 inst_52:ZN 0.4162
2 TAUNET_30:1 0.0491
3 TAUNET_30:2 0.3511
4 TAUGATE_30:A 0.2111
*RES
2 inst_52:ZN TAUNET_30:1 0.3010
3 TAUNET_30:1 TAUNET_30:2 0.1515
4 TAUNET_30:2 TAUGATE_30:A 0.0492
*END

*D_NET TAUNET_58 1.1227
*CONN
*P n88gat I
*I TAUGATE_58:A I
*CAP
1 n88gat 0.0711
2 TAUNET_58:1 0.0021
3 TAUNET_58:2 0.2080
4 TAUNET_58:3 0.3529
5 TAUGATE_58:A 0.4886
*RES
2 n88gat TAUNET_58:1 0.3648
3 TAUNET_58:1 TAUNET_58:2 0.4404
4 TAUNET_58:2 TAUNET_58:3 0.3187
5 TAUNET_58:3 TAUGATE_58:A 0.4272
*END

*D_NET net_42 3.1956
*CONN
*I TAUGATE_30:Z O
*I inst_105:A2 I
*I inst_106:A2 I
*CAP
1 TAUGATE_30:Z 0.4026
2 net_42:1 0.1803
3 net_42:2 0.0882
4 net_42:3 0.2924
5 inst_105:A2 0.4780
6 net_42:4 0.0762
7 net_42:5 0.1986
8 net_42:6 0.3922
9 net_42:7 0.3950
10 net_42:8 0.2666
11 inst_106:A2 0.4255
*RES
2 TAUGATE_30:Z net_42:1 0.3510
3 net_42:1 net_42:2 0.1182
4 net_42:2 net_42:3 0.2614
5 net_42:3 inst_105:A2 0.1530
6 net_42:2 net_42:4 0.4671
7 net_42:4 net_42:5 0.2972
8 net_42:5 net_42:6 0.3936
9 net_42:6 net_42:7 0.4880
10 net_42:7 net_42:8 0.4169
11 net_42:8 inst_106:A2 0.3167
*END

*D_NET net_120 1.2435
*CONN
*I TAUGATE_57:Z O
*I inst_66:A3 I
*CAP
1 TAUGATE_57:Z 0.1073
2 net_120:1 0.1300
3 net_120:2 0.3795
4 net_120:3 0.2362
5 net_120:4 0.1908
6 inst_66:A3 0.1996
*RES
2 TAUGATE_57:Z net_120:1 0.3123
3 net_120:1 net_120:2 0.1251
4 net_120:2 net_120:3 0.0048
5 net_120:3 net_120:4 0.3126
6 net_120:4 inst_66:A3 0.0195
*END

*D_NET n448gat 1.8169
*CONN
*I TAUGATE_45:Z O
*P n448gat O
*CAP
1 TAUGATE_45:Z 0.3700
2 n448gat:1 0.3466
3 n448gat:2 0.4948
4 n448gat:3 0.4038
5 n448gat:4 0.1954
6 n448gat 0.0063
*RES
2 TAUGATE_45:Z n448gat:1 0.4904
3 n448gat:1 n448gat:2 0.0915
4 n448gat:2 n448gat:3 0.4619
5 n448gat:3 n448gat:4 0.1065
6 n448gat:4 n448gat 0.1990
*END

*D_NET n391gat 0.5577
*CONN
*I TAUGATE_26:Z O
*P n391gat O
*CAP
1 TAUGATE_26:Z 0.0690
2 n391gat:1 0.2934
3 n391gat:2 0.0661
4 n391gat:3 0.0281
5 n391gat 0.1011
*RES
2 TAUGATE_26:Z n391gat:1 0.2539
3 n391gat:1 n391gat:2 0.0765
4 n391gat:2 n391gat:3 0.1980
5 n391gat:3 n391gat 0.3226
*END

*D_NET TAUNET_52 2.4686
*CONN
*I inst_173:ZN O
*I TAUGATE_52:A I
*CAP
1 inst_173:ZN 0.2766
2 TAUNET_52:1 0.4267
3 TAUNET_52:2 0.4596
4 TAUNET_52:3 0.3295
5 TAUNET_52:4 0.4724
6 TAUNET_52:5 0.4631
7 TAUGATE_52:A 0.0407
*RES
2 inst_173:ZN TAUNET_52:1 0.4130
3 TAUNET_52:1 TAUNET_52:2 0.3462
4 TAUNET_52:2 TAUNET_52:3 0.0714
5 TAUNET_52:3 TAUNET_52:4 0.2110
6 TAUNET_52:4 TAUNET_52:5 0.2588
7 TAUNET_52:5 TAUGATE_52:A 0.0339
*END

*D_NET TAUNET_59 0.9948
*CONN
*I inst_218:ZN O
*I TAUGATE_59:A I
*CAP
1 inst_218:ZN 0.4874
2 TAUNET_59:1 0.2489
3 TAUGATE_59:A 0.2584
*RES
2 inst_218:ZN TAUNET_59:1 0.0346
3 TAUNET_59:1 TAUGATE_59:A 0.4333
*END

*D_NET net_80 1.2318
*CONN
*I TAUGATE_22:Z O
*I inst_80:A2 I
*CAP
1 TAUGATE_22:Z 0.3416
2 net_80:1 0.1540
3 net_80:2 0.0325
4 net_80:3 0.0924
5 net_80:4 0.1850
6 net_80:5 0.1516
7 inst_80:A2 0.2746
*RES
2 TAUGATE_22:Z net_80:1 0.4228
3 net_80:1 net_80:2 0.1417
4 net_80:2 net_80:3 0.3754
5 net_80:3 net_80:4 0.2016
6 net_80:4 net_80:5 0.0068
7 net_80:5 inst_80:A2 0.2001
*END

*D_NET TAUNET_48 1.0932
*CONN
*I inst_135:ZN O
*I TAUGATE_48:A I
*CAP
1 inst_135:ZN 0.4926
2 TAUNET_48:1 0.3810
3 TAUGATE_48:A 0.2195
*RES
2 inst_135:ZN TAUNET_48:1 0.2042
3 TAUNET_48:1 TAUGATE_48:A 0.2030
*END

*D_NET TAUNET_42 1.1297
*CONN
*I inst_70:ZN O
*I TAUGATE_42:A I
*CAP
1 inst_70:ZN 0.4413
2 TAUNET_42:1 0.4042
3 TAUNET_42:2 0.0451
4 TAUGATE_42:A 0.2391
*RES
2 inst_70:ZN TAUNET_42:1 0.0321
3 TAUNET_42:1 TAUNET_42:2 0.4146
4 TAUNET_42:2 TAUGATE_42:A 0.0857
*END

*D_NET net_190 1.3928
*CONN
*I TAUGATE_44:Z O
*I inst_78:A1 I
*CAP
1 TAUGATE_44:Z 0.2245
2 net_190:1 0.0551
3 net_190:2 0.1877
4 net_190:3 0.0973
5 net_190:4 0.4235
6 net_190:5 0.1903
7 inst_78:A1 0.2143
*RES
2 TAUGATE_44:Z net_190:1 0.0701
3 net_190:1 net_190:2 0.2421
4 net_190:2 net_190:3 0.4634
5 net_190:3 net_190:4 0.2497
6 net_190:4 net_190:5 0.2766
7 net_190:5 inst_78:A1 0.3086
*END

*D_NET TAUNET_18 1.1823
*CONN
*I inst_20:ZN O
*I TAUGATE_18:A I
*CAP
1 inst_20:ZN 0.4838
2 TAUNET_18:1 0.3539
3 TAUGATE_18:A 0.3446
*RES
2 inst_20:ZN TAUNET_18:1 0.0192
3 TAUNET_18:1 TAUGATE_18:A 0.1341
*END

*D_NET TAUNET_45 1.7145
*CONN
*I inst_203:ZN O
*I TAUGATE_45:A I
*CAP
1 inst_203:ZN 0.3681
2 TAUNET_45:1 0.1561
3 TAUNET_45:2 0.1347
4 TAUNET_45:3 0.0224
5 TAUNET_45:4 0.3933
6 TAUNET_45:5 0.2244
7 TAUGATE_45:A 0.4154
*RES
2 inst_203:ZN TAUNET_45:1 0.1374
3 TAUNET_45:1 TAUNET_45:2 0.1713
4 TAUNET_45:2 TAUNET_45:3 0.2153
5 TAUNET_45:3 TAUNET_45:4 0.3119
6 TAUNET_45:4 TAUNET_45:5 0.4918
7 TAUNET_45:5 TAUGATE_45:A 0.3583
*END

*D_NET TAUNET_21 1.2856
*CONN
*I inst_151:ZN O
*I TAUGATE_21:A I
*CAP
1 inst_151:ZN 0.0071
2 TAUNET_21:1 0.4834
3 TAUNET_21:2 0.4589
4 TAUNET_21:3 0.0098
5 TAUGATE_21:A 0.3264
*RES
2 inst_151:ZN TAUNET_21:1 0.2846
3 TAUNET_21:1 TAUNET_21:2 0.4721
4 TAUNET_21:2 TAUNET_21:3 0.1185
5 TAUNET_21:3 TAUGATE_21:A 0.4585
*END

*D_NET TAUNET_3 1.8587
*CONN
*I TAUGATE_34:Z O
*I TAUGATE_3:A I
*CAP
1 TAUGATE_34:Z 0.0365
2 TAUNET_3:1 0.4335
3 TAUNET_3:2 0.3158
4 TAUNET_3:3 0.2513
5 TAUNET_3:4 0.4798
6 TAUNET_3:5 0.1640
7 TAUGATE_3:A 0.1778
*RES
2 TAUGATE_34:Z TAUNET_3:1 0.3155