*SPEF "IEEE 1481-1998"
*DESIGN "changes"
*DATE "Tue Dec 02 20:47:10 2014"
*VENDOR "TAU 2015 Contest"
*PROGRAM "Benchmark Parasitic Generator"
*VERSION "0.0"
*DESIGN_FLOW "NETLIST_TYPE_VERILOG"
*DIVIDER /
*DELIMITER :
*BUS_DELIMITER [ ]
*T_UNIT 1 PS
*C_UNIT 1 FF
*R_UNIT 1 KOHM
*L_UNIT 1 UH

*D_NET net_47 1.7439
*CONN
*I TAUGATE_383:Z O
*I inst_17:A I
*CAP
1 TAUGATE_383:Z 0.2611
2 net_47:1 0.4098
3 net_47:2 0.5009
4 net_47:3 0.2843
5 inst_17:A 0.2878
*RES
2 TAUGATE_383:Z net_47:1 0.1659
3 net_47:1 net_47:2 0.2742
4 net_47:2 net_47:3 0.3494
5 net_47:3 inst_17:A 0.1485
*END

*D_NET TAUNET_275 1.3760
*CONN
*I inst_205:ZN O
*I TAUGATE_275:A I
*CAP
1 inst_205:ZN 0.2110
2 TAUNET_275:1 0.3070
3 TAUNET_275:2 0.3583
4 TAUNET_275:3 0.1395
5 TAUNET_275:4 0.0646
6 TAUNET_275:5 0.0794
7 TAUGATE_275:A 0.2161
*RES
2 inst_205:ZN TAUNET_275:1 0.1614
3 TAUNET_275:1 TAUNET_275:2 0.3312
4 TAUNET_275:2 TAUNET_275:3 0.3755
5 TAUNET_275:3 TAUNET_275:4 0.4644
6 TAUNET_275:4 TAUNET_275:5 0.4559
7 TAUNET_275:5 TAUGATE_275:A 0.4050
*END

*D_NET TAUNET_114 0.4849
*CONN
*I inst_202:ZN O
*I TAUGATE_114:A I
*CAP
1 inst_202:ZN 0.1670
2 TAUNET_114:1 0.2440
3 TAUNET_114:2 0.0332
4 TAUGATE_114:A 0.0406
*RES
2 inst_202:ZN TAUNET_114:1 0.2732
3 TAUNET_114:1 TAUNET_114:2 0.0073
4 TAUNET_114:2 TAUGATE_114:A 0.1308
*END

*D_NET net_54 3.2076
*CONN
*I TAUGATE_78:Z O
*I inst_27:A3 I
*I inst_53:A2 I
*CAP
1 TAUGATE_78:Z 0.2909
2 net_54:1 0.0740
3 net_54:2 0.4871
4 net_54:3 0.4951
5 net_54:4 0.4125
6 inst_27:A3 0.0565
7 net_54:5 0.4708
8 net_54:6 0.3056
9 net_54:7 0.3464
10 net_54:8 0.0305
11 inst_53:A2 0.2383
*RES
2 TAUGATE_78:Z net_54:1 0.1285
3 net_54:1 net_54:2 0.0292
4 net_54:2 net_54:3 0.2926
5 net_54:3 net_54:4 0.4507
6 net_54:4 inst_27:A3 0.3356
7 net_54:4 net_54:5 0.4020
8 net_54:5 net_54:6 0.2529
9 net_54:6 net_54:7 0.2665
10 net_54:7 net_54:8 0.4354
11 net_54:8 inst_53:A2 0.1977
*END

*D_NET n768gat 1.4247
*CONN
*I TAUGATE_108:Z O
*P n768gat O
*CAP
1 TAUGATE_108:Z 0.3276
2 n768gat:1 0.3292
3 n768gat:2 0.0716
4 n768gat:3 0.2236
5 n768gat:4 0.1922
6 n768gat 0.2805
*RES
2 TAUGATE_108:Z n768gat:1 0.1322
3 n768gat:1 n768gat:2 0.1905
4 n768gat:2 n768gat:3 0.4017
5 n768gat:3 n768gat:4 0.4680
6 n768gat:4 n768gat 0.2976
*END

*D_NET TAUNET_232 1.4553
*CONN
*I inst_50:ZN O
*I TAUGATE_232:A I
*CAP
1 inst_50:ZN 0.2927
2 TAUNET_232:1 0.2211
3 TAUNET_232:2 0.1955
4 TAUNET_232:3 0.1868
5 TAUNET_232:4 0.4889
6 TAUGATE_232:A 0.0703
*RES
2 inst_50:ZN TAUNET_232:1 0.3298
3 TAUNET_232:1 TAUNET_232:2 0.4131
4 TAUNET_232:2 TAUNET_232:3 0.3310
5 TAUNET_232:3 TAUNET_232:4 0.2621
6 TAUNET_232:4 TAUGATE_232:A 0.4792
*END

*D_NET n419gat 1.1591
*CONN
*I TAUGATE_115:Z O
*P n419gat O
*CAP
1 TAUGATE_115:Z 0.0717
2 n419gat:1 0.4035
3 n419gat:2 0.0219
4 n419gat:3 0.0830
5 n419gat:4 0.4539
6 n419gat 0.1250
*RES
2 TAUGATE_115:Z n419gat:1 0.3196
3 n419gat:1 n419gat:2 0.4976
4 n419gat:2 n419gat:3 0.3591
5 n419gat:3 n419gat:4 0.2780
6 n419gat:4 n419gat 0.2022
*END

*D_NET net_129 3.7305
*CONN
*I TAUGATE_92:Z O
*I inst_158:A2 I
*I inst_168:A1 I
*CAP
1 TAUGATE_92:Z 0.4382
2 net_129:1 0.4055
3 net_129:2 0.4519
4 net_129:3 0.4658
5 net_129:4 0.3690
6 inst_158:A2 0.4019
7 net_129:5 0.1782
8 net_129:6 0.4734
9 net_129:7 0.0376
10 net_129:8 0.0972
11 net_129:9 0.3594
12 inst_168:A1 0.0525
*RES
2 TAUGATE_92:Z net_129:1 0.0632
3 net_129:1 net_129:2 0.2503
4 net_129:2 net_129:3 0.4700
5 net_129:3 net_129:4 0.3789
6 net_129:4 inst_158:A2 0.3545
7 net_129:1 net_129:5 0.3248
8 net_129:5 net_129:6 0.2597
9 net_129:6 net_129:7 0.1267
10 net_129:7 net_129:8 0.3840
11 net_129:8 net_129:9 0.2434
12 net_129:9 inst_168:A1 0.3726
*END

*D_NET net_98 1.9251
*CONN
*I TAUGATE_296:Z O
*I inst_59:A2 I
*I inst_187:A I
*CAP
1 TAUGATE_296:Z 0.2454
2 net_98:1 0.1921
3 net_98:2 0.1376
4 net_98:3 0.4443
5 net_98:4 0.1288
6 net_98:5 0.3022
7 inst_187:A 0.1405
8 net_98:6 0.3089
9 inst_59:A2 0.0253
*RES
2 TAUGATE_296:Z net_98:1 0.0668
3 net_98:1 net_98:2 0.3699
4 net_98:2 net_98:3 0.4131
5 net_98:3 net_98:4 0.4004
6 net_98:4 net_98:5 0.4814
7 net_98:5 inst_187:A 0.1341
8 net_98:5 net_98:6 0.3105
9 net_98:6 inst_59:A2 0.1881
*END

*D_NET net_119 2.8280
*CONN
*I TAUGATE_266:Z O
*I inst_59:A1 I
*I inst_188:A I
*I inst_39:A2 I
*CAP
1 TAUGATE_266:Z 0.1592
2 net_119:1 0.2761
3 net_119:2 0.3643
4 net_119:3 0.2288
5 net_119:4 0.0666
6 inst_188:A 0.3854
7 net_119:5 0.4921
8 net_119:6 0.1648
9 net_119:7 0.1855
10 inst_59:A1 0.0112
11 net_119:8 0.3290
12 net_119:9 0.1620
13 inst_39:A2 0.0029
*RES
2 TAUGATE_266:Z net_119:1 0.3580
3 net_119:1 net_119:2 0.3774
4 net_119:2 net_119:3 0.2731
5 net_119:3 net_119:4 0.1525
6 net_119:4 inst_188:A 0.0518
7 net_119:3 net_119:5 0.3530
8 net_119:5 net_119:6 0.1128
9 net_119:6 net_119:7 0.2239
10 net_119:7 inst_59:A1 0.0917
11 net_119:7 net_119:8 0.2883
12 net_119:8 net_119:9 0.1903
13 net_119:9 inst_39:A2 0.4381
*END

*D_NET TAUNET_356 0.3519
*CONN
*I inst_211:ZN O
*I TAUGATE_356:A I
*CAP
1 inst_211:ZN 0.0801
2 TAUNET_356:1 0.1891
3 TAUNET_356:2 0.0464
4 TAUGATE_356:A 0.0364
*RES
2 inst_211:ZN TAUNET_356:1 0.0279
3 TAUNET_356:1 TAUNET_356:2 0.4104
4 TAUNET_356:2 TAUGATE_356:A 0.0649
*END

*D_NET net_151 1.6384
*CONN
*I TAUGATE_209:Z O
*I inst_47:A2 I
*I inst_163:A1 I
*CAP
1 TAUGATE_209:Z 0.1600
2 net_151:1 0.4787
3 net_151:2 0.1076
4 inst_47:A2 0.4606
5 net_151:3 0.0580
6 inst_163:A1 0.3736
*RES
2 TAUGATE_209:Z net_151:1 0.3388
3 net_151:1 net_151:2 0.4657
4 net_151:2 inst_47:A2 0.3595
5 net_151:1 net_151:3 0.0395
6 net_151:3 inst_163:A1 0.3644
*END

*D_NET net_53 2.3814
*CONN
*I TAUGATE_210:Z O
*I inst_193:A4 I
*CAP
1 TAUGATE_210:Z 0.1977
2 net_53:1 0.3877
3 net_53:2 0.3882
4 net_53:3 0.4950
5 net_53:4 0.0413
6 net_53:5 0.4651
7 inst_193:A4 0.4065
*RES
2 TAUGATE_210:Z net_53:1 0.3164
3 net_53:1 net_53:2 0.3513
4 net_53:2 net_53:3 0.1165
5 net_53:3 net_53:4 0.0986
6 net_53:4 net_53:5 0.2243
7 net_53:5 inst_193:A4 0.1286
*END

*D_NET TAUNET_103 1.4306
*CONN
*I inst_35:ZN O
*I TAUGATE_103:A I
*CAP
1 inst_35:ZN 0.2482
2 TAUNET_103:1 0.1533
3 TAUNET_103:2 0.4091
4 TAUNET_103:3 0.2613
5 TAUGATE_103:A 0.3587
*RES
2 inst_35:ZN TAUNET_103:1 0.1869
3 TAUNET_103:1 TAUNET_103:2 0.4974
4 TAUNET_103:2 TAUNET_103:3 0.3047
5 TAUNET_103:3 TAUGATE_103:A 0.1200
*END

*D_NET TAUNET_177 0.5270
*CONN
*P n165gat I
*I TAUGATE_177:A I
*CAP
1 n165gat 0.1210
2 TAUNET_177:1 0.1014
3 TAUNET_177:2 0.0283
4 TAUGATE_177:A 0.2763
*RES
2 n165gat TAUNET_177:1 0.2945
3 TAUNET_177:1 TAUNET_177:2 0.3177
4 TAUNET_177:2 TAUGATE_177:A 0.2101
*END

*D_NET net_168 1.4286
*CONN
*I TAUGATE_293:Z O
*I inst_170:A2 I
*CAP
1 TAUGATE_293:Z 0.2046
2 net_168:1 0.1317
3 net_168:2 0.3617
4 net_168:3 0.0856
5 net_168:4 0.3629
6 inst_170:A2 0.2821
*RES
2 TAUGATE_293:Z net_168:1 0.3900
3 net_168:1 net_168:2 0.0557
4 net_168:2 net_168:3 0.1253
5 net_168:3 net_168:4 0.2716
6 net_168:4 inst_170:A2 0.3735
*END

*D_NET TAUNET_31 1.5454
*CONN
*I TAUGATE_298:Z O
*I TAUGATE_31:A I
*CAP
1 TAUGATE_298:Z 0.3323
2 TAUNET_31:1 0.0362
3 TAUNET_31:2 0.4966
4 TAUNET_31:3 0.4101
5 TAUGATE_31:A 0.2702
*RES
2 TAUGATE_298:Z TAUNET_31:1 0.2135
3 TAUNET_31:1 TAUNET_31:2 0.0419
4 TAUNET_31:2 TAUNET_31:3 0.2773
5 TAUNET_31:3 TAUGATE_31:A 0.0903
*END

*D_NET TAUNET_91 2.3457
*CONN
*I inst_0:Z O
*I TAUGATE_91:A I
*CAP
1 inst_0:Z 0.4602
2 TAUNET_91:1 0.2009
3 TAUNET_91:2 0.3114
4 TAUNET_91:3 0.3090
5 TAUNET_91:4 0.3972
6 TAUNET_91:5 0.4228
7 TAUGATE_91:A 0.2443
*RES
2 inst_0:Z TAUNET_91:1 0.2458
3 TAUNET_91:1 TAUNET_91:2 0.3734
4 TAUNET_91:2 TAUNET_91:3 0.1567
5 TAUNET_91:3 TAUNET_91:4 0.1247
6 TAUNET_91:4 TAUNET_91:5 0.2439
7 TAUNET_91:5 TAUGATE_91:A 0.2588
*END

*D_NET TAUNET_208 0.9945
*CONN
*I inst_58:ZN O
*I TAUGATE_208:A I
*CAP
1 inst_58:ZN 0.3528
2 TAUNET_208:1 0.4436
3 TAUGATE_208:A 0.1981
*RES
2 inst_58:ZN TAUNET_208:1 0.3275
3 TAUNET_208:1 TAUGATE_208:A 0.0169
*END

*D_NET TAUNET_9 1.2825
*CONN
*I TAUGATE_173:Z O
*I TAUGATE_9:A I
*CAP
1 TAUGATE_173:Z 0.4684
2 TAUNET_9:1 0.0579
3 TAUNET_9:2 0.0423
4 TAUNET_9:3 0.2861
5 TAUGATE_9:A 0.4278
*RES
2 TAUGATE_173:Z TAUNET_9:1 0.3875
3 TAUNET_9:1 TAUNET_9:2 0.4796
4 TAUNET_9:2 TAUNET_9:3 0.3740
5 TAUNET_9:3 TAUGATE_9:A 0.1554
*END

*D_NET TAUNET_128 2.4087
*CONN
*P n121gat I
*I TAUGATE_128:A I
*CAP
1 n121gat 0.4380
2 TAUNET_128:1 0.4990
3 TAUNET_128:2 0.2134
4 TAUNET_128:3 0.1115
5 TAUNET_128:4 0.4947
6 TAUNET_128:5 0.3666
7 TAUGATE_128:A 0.2854
*RES
2 n121gat TAUNET_128:1 0.4464
3 TAUNET_128:1 TAUNET_128:2 0.2438
4 TAUNET_128:2 TAUNET_128:3 0.2969
5 TAUNET_128:3 TAUNET_128:4 0.3091
6 TAUNET_128:4 TAUNET_128:5 0.5006
7 TAUNET_128:5 TAUGATE_128:A 0.2264
*END

*D_NET TAUNET_161 1.1017
*CONN
*I inst_169:ZN O
*I TAUGATE_161:A I
*CAP
1 inst_169:ZN 0.2044
2 TAUNET_161:1 0.3886
3 TAUNET_161:2 0.2618
4 TAUGATE_161:A 0.2468
*RES
2 inst_169:ZN TAUNET_161:1 0.4002
3 TAUNET_161:1 TAUNET_161:2 0.3652
4 TAUNET_161:2 TAUGATE_161:A 0.1857
*END

*D_NET TAUNET_249 1.1556
*CONN
*I TAUGATE_37:Z O
*I TAUGATE_249:A I
*CAP
1 TAUGATE_37:Z 0.0882
2 TAUNET_249:1 0.2715
3 TAUNET_249:2 0.0199
4 TAUNET_249:3 0.4145
5 TAUNET_249:4 0.1459
6 TAUNET_249:5 0.1130
7 TAUGATE_249:A 0.1026
*RES
2 TAUGATE_37:Z TAUNET_249:1 0.1939
3 TAUNET_249:1 TAUNET_249:2 0.1095
4 TAUNET_249:2 TAUNET_249:3 0.0212
5 TAUNET_249:3 TAUNET_249:4 0.1417
6 TAUNET_249:4 TAUNET_249:5 0.2190
7 TAUNET_249:5 TAUGATE_249:A 0.4826
*END

*D_NET net_187 1.4876
*CONN
*I TAUGATE_188:Z O
*I inst_178:A2 I
*CAP
1 TAUGATE_188:Z 0.4033
2 net_187:1 0.2540
3 net_187:2 0.0526
4 net_187:3 0.2388
5 net_187:4 0.1787
6 inst_178:A2 0.3603
*RES
2 TAUGATE_188:Z net_187:1 0.0603
3 net_187:1 net_187:2 0.0863
4 net_187:2 net_187:3 0.3102
5 net_187:3 net_187:4 0.1239
6 net_187:4 inst_178:A2 0.2473
*END

*D_NET net_111 4.5251
*CONN
*I TAUGATE_130:Z O
*I inst_151:A1 I
*I inst_36:A2 I
*I inst_178:A1 I
*CAP
1 TAUGATE_130:Z 0.4935
2 net_111:1 0.3995
3 net_111:2 0.4441
4 net_111:3 0.4218
5 inst_151:A1 0.0848
6 net_111:4 0.3985
7 net_111:5 0.0145
8 net_111:6 0.0725
9 net_111:7 0.4492
10 net_111:8 0.3124
11 inst_36:A2 0.3685
12 net_111:9 0.4634
13 net_111:10 0.2869
14 net_111:11 0.1646
15 net_111:12 0.1182
16 inst_178:A1 0.0327
*RES
2 TAUGATE_130:Z net_111:1 0.0266
3 net_111:1 net_111:2 0.0274
4 net_111:2 net_111:3 0.4218
5 net_111:3 inst_151:A1 0.2061
6 net_111:2 net_111:4 0.4317
7 net_111:4 net_111:5 0.1801
8 net_111:5 net_111:6 0.2826
9 net_111:6 net_111:7 0.3420
10 net_111:7 net_111:8 0.0965
11 net_111:8 inst_36:A2 0.2555
12 net_111:2 net_111:9 0.0608
13 net_111:9 net_111:10 0.3721
14 net_111:10 net_111:11 0.4648
15 net_111:11 net_111:12 0.2376
16 net_111:12 inst_178:A1 0.1146
*END

*D_NET net_90 1.9264
*CONN
*I TAUGATE_203:Z O
*I inst_139:A2 I
*I inst_55:A2 I
*I inst_137:A2 I
*CAP
1 TAUGATE_203:Z 0.1439
2 net_90:1 0.2502
3 inst_55:A2 0.2506
4 net_90:2 0.2747
5 inst_139:A2 0.1704
6 net_90:3 0.3621
7 net_90:4 0.1254
8 inst_137:A2 0.3490
*RES
2 TAUGATE_203:Z net_90:1 0.4486
3 net_90:1 inst_55:A2 0.0641
4 net_90:1 net_90:2 0.2303
5 net_90:2 inst_139:A2 0.0121
6 net_90:1 net_90:3 0.4751
7 net_90:3 net_90:4 0.3195
8 net_90:4 inst_137:A2 0.4748
*END

*D_NET TAUNET_192 1.3487
*CONN
*I inst_33:ZN O
*I TAUGATE_192:A I
*CAP
1 inst_33:ZN 0.2036
2 TAUNET_192:1 0.0185
3 TAUNET_192:2 0.3777
4 TAUNET_192:3 0.2437
5 TAUNET_192:4 0.3641
6 TAUGATE_192:A 0.1411
*RES
2 inst_33:ZN TAUNET_192:1 0.2452
3 TAUNET_192:1 TAUNET_192:2 0.2723
4 TAUNET_192:2 TAUNET_192:3 0.2079
5 TAUNET_192:3 TAUNET_192:4 0.2449
6 TAUNET_192:4 TAUGATE_192:A 0.0406
*END

*D_NET TAUNET_151 0.0517
*CONN
*I inst_196:ZN O
*I TAUGATE_151:A I
*CAP
1 inst_196:ZN 0.0078
2 TAUNET_151:1 0.0264
3 TAUGATE_151:A 0.0174
*RES
2 inst_196:ZN TAUNET_151:1 0.1906
3 TAUNET_151:1 TAUGATE_151:A 0.1553
*END

*D_NET TAUNET_141 1.3954
*CONN
*I inst_159:ZN O
*I TAUGATE_141:A I
*CAP
1 inst_159:ZN 0.2944
2 TAUNET_141:1 0.0209
3 TAUNET_141:2 0.1182
4 TAUNET_141:3 0.1067
5 TAUNET_141:4 0.4881
6 TAUGATE_141:A 0.3672
*RES
2 inst_159:ZN TAUNET_141:1 0.4629
3 TAUNET_141:1 TAUNET_141:2 0.1157
4 TAUNET_141:2 TAUNET_141:3 0.1901
5 TAUNET_141:3 TAUNET_141:4 0.2138
6 TAUNET_141:4 TAUGATE_141:A 0.5008
*END

*D_NET net_85 4.2951
*CONN
*I TAUGATE_182:Z O
*I inst_72:A2 I
*I inst_74:A3 I
*I inst_75:A3 I
*I inst_73:A2 I
*CAP
1 TAUGATE_182:Z 0.3428
2 net_85:1 0.2733
3 net_85:2 0.1266
4 net_85:3 0.3814
5 inst_75:A3 0.1363
6 net_85:4 0.1159
7 net_85:5 0.4527
8 net_85:6 0.1465
9 net_85:7 0.1463
10 net_85:8 0.4621
11 inst_74:A3 0.4065
12 net_85:9 0.0313
13 net_85:10 0.1217
14 net_85:11 0.0111
15 net_85:12 0.1222
16 inst_72:A2 0.0613
17 net_85:13 0.3072
18 net_85:14 0.2768
19 net_85:15 0.1679
20 inst_73:A2 0.2053
*RES
2 TAUGATE_182:Z net_85:1 0.3277
3 net_85:1 net_85:2 0.3144
4 net_85:2 net_85:3 0.4503
5 net_85:3 inst_75:A3 0.3676
6 net_85:1 net_85:4 0.0227
7 net_85:4 net_85:5 0.2236
8 net_85:5 net_85:6 0.4114
9 net_85:6 net_85:7 0.0715
10 net_85:7 net_85:8 0.1546
11 net_85:8 inst_74:A3 0.1861
12 net_85:8 net_85:9 0.1692
13 net_85:9 net_85:10 0.4407
14 net_85:10 net_85:11 0.4978
15 net_85:11 net_85:12 0.2563
16 net_85:12 inst_72:A2 0.2595
17 net_85:7 net_85:13 0.2140
18 net_85:13 net_85:14 0.3306
19 net_85:14 net_85:15 0.1569
20 net_85:15 inst_73:A2 0.2580
*END

*D_NET TAUNET_350 2.4397
*CONN
*I inst_93:ZN O
*I TAUGATE_350:A I
*CAP
1 inst_93:ZN 0.4796
2 TAUNET_350:1 0.4946
3 TAUNET_350:2 0.4608
4 TAUNET_350:3 0.4692
5 TAUNET_350:4 0.4766
6 TAUGATE_350:A 0.0589
*RES
2 inst_93:ZN TAUNET_350:1 0.0962
3 TAUNET_350:1 TAUNET_350:2 0.2415
4 TAUNET_350:2 TAUNET_350:3 0.1750
5 TAUNET_350:3 TAUNET_350:4 0.4103
6 TAUNET_350:4 TAUGATE_350:A 0.0845
*END

*D_NET net_124 1.6169
*CONN
*I TAUGATE_279:Z O
*I inst_174:A1 I
*I inst_154:A2 I
*CAP
1 TAUGATE_279:Z 0.1436
2 net_124:1 0.4748
3 net_124:2 0.0806
4 inst_174:A1 0.0407
5 net_124:3 0.2640
6 net_124:4 0.1831
7 net_124:5 0.4110
8 inst_154:A2 0.0191
*RES
2 TAUGATE_279:Z net_124:1 0.2069
3 net_124:1 net_124:2 0.0491
4 net_124:2 inst_174:A1 0.4137
5 net_124:2 net_124:3 0.3538
6 net_124:3 net_124:4 0.4300
7 net_124:4 net_124:5 0.3629
8 net_124:5 inst_154:A2 0.0787
*END

*D_NET net_160 2.0675
*CONN
*I TAUGATE_304:Z O
*I inst_166:A2 I
*CAP
1 TAUGATE_304:Z 0.2971
2 net_160:1 0.5010
3 net_160:2 0.3538
4 net_160:3 0.4649
5 net_160:4 0.0482
6 net_160:5 0.1062
7 inst_166:A2 0.2963
*RES
2 TAUGATE_304:Z net_160:1 0.4911
3 net_160:1 net_160:2 0.2002
4 net_160:2 net_160:3 0.2573
5 net_160:3 net_160:4 0.3761
6 net_160:4 net_160:5 0.0616
7 net_160:5 inst_166:A2 0.4298
*END

*D_NET TAUNET_201 0.5116
*CONN
*P n201gat I
*I TAUGATE_201:A I
*CAP
1 n201gat 0.2634
2 TAUNET_201:1 0.0745
3 TAUGATE_201:A 0.1738
*RES
2 n201gat TAUNET_201:1 0.4336
3 TAUNET_201:1 TAUGATE_201:A 0.4556
*END

*D_NET TAUNET_87 1.0764
*CONN
*I inst_63:ZN O
*I TAUGATE_87:A I
*CAP
1 inst_63:ZN 0.0036
2 TAUNET_87:1 0.2737
3 TAUNET_87:2 0.3095
4 TAUGATE_87:A 0.4895
*RES
2 inst_63:ZN TAUNET_87:1 0.4033
3 TAUNET_87:1 TAUNET_87:2 0.2734
4 TAUNET_87:2 TAUGATE_87:A 0.3461
*END

*D_NET TAUNET_361 1.3424
*CONN
*P n228gat I
*I TAUGATE_361:A I
*CAP
1 n228gat 0.0418
2 TAUNET_361:1 0.3815
3 TAUNET_361:2 0.1458
4 TAUNET_361:3 0.4915
5 TAUNET_361:4 0.0683
6 TAUGATE_361:A 0.2135
*RES
2 n228gat TAUNET_361:1 0.4484
3 TAUNET_361:1 TAUNET_361:2 0.1379
4 TAUNET_361:2 TAUNET_361:3 0.1139
5 TAUNET_361:3 TAUNET_361:4 0.0489
6 TAUNET_361:4 TAUGATE_361:A 0.0861
*END

*D_NET TAUNET_72 1.2401
*CONN
*I inst_151:ZN O
*I TAUGATE_72:A I
*CAP
1 inst_151:ZN 0.4806
2 TAUNET_72:1 0.1114
3 TAUNET_72:2 0.0198
4 TAUNET_72:3 0.2366
5 TAUNET_72:4 0.1100
6 TAUGATE_72:A 0.2818
*RES
2 inst_151:ZN TAUNET_72:1 0.3290
3 TAUNET_72:1 TAUNET_72:2 0.1592
4 TAUNET_72:2 TAUNET_72:3 0.4236
5 TAUNET_72:3 TAUNET_72:4 0.3328
6 TAUNET_72:4 TAUGATE_72:A 0.1906
*END

*D_NET n878gat 1.5747
*CONN
*I TAUGATE_222:Z O
*P n878gat O
*CAP
1 TAUGATE_222:Z 0.4347
2 n878gat:1 0.1394
3 n878gat:2 0.0096
4 n878gat:3 0.4963
5 n878gat:4 0.2377
6 n878gat 0.2571
*RES
2 TAUGATE_222:Z n878gat:1 0.3610
3 n878gat:1 n878gat:2 0.0042
4 n878gat:2 n878gat:3 0.2690
5 n878gat:3 n878gat:4 0.3841
6 n878gat:4 n878gat 0.3400
*END

*D_NET TAUNET_398 1.2277
*CONN
*I inst_194:ZN O
*I TAUGATE_398:A I
*CAP
1 inst_194:ZN 0.3112
2 TAUNET_398:1 0.4134
3 TAUNET_398:2 0.0741
4 TAUGATE_398:A 0.4290
*RES
2 inst_194:ZN TAUNET_398:1 0.4891
3 TAUNET_398:1 TAUNET_398:2 0.0621
4 TAUNET_398:2 TAUGATE_398:A 0.2122
*END

*D_NET net_4 0.7629
*CONN
*I TAUGATE_281:Z O
*I inst_196:A3 I
*CAP
1 TAUGATE_281:Z 0.1253
2 net_4:1 0.2343
3 net_4:2 0.1106
4 net_4:3 0.0283
5 inst_196:A3 0.2644
*RES
2 TAUGATE_281:Z net_4:1 0.3395
3 net_4:1 net_4:2 0.4160
4 net_4:2 net_4:3 0.1311
5 net_4:3 inst_196:A3 0.1702
*END

*D_NET n51gat 2.7314
*CONN
*I TAUGATE_213:Z O
*I inst_209:A1 I
*I inst_60:A1 I
*I inst_94:A1 I
*CAP
1 TAUGATE_213:Z 0.0383
2 n51gat:1 0.2177
3 n51gat:2 0.0520
4 n51gat:3 0.1787
5 inst_209:A1 0.3277
6 n51gat:4 0.0500
7 n51gat:5 0.3450
8 n51gat:6 0.2552
9 n51gat:7 0.2397
10 inst_60:A1 0.3943
11 n51gat:8 0.2910
12 inst_94:A1 0.3418
*RES
2 TAUGATE_213:Z n51gat:1 0.2308
3 n51gat:1 n51gat:2 0.1825
4 n51gat:2 n51gat:3 0.4154
5 n51gat:3 inst_209:A1 0.4205
6 n51gat:1 n51gat:4 0.0450
7 n51gat:4 n51gat:5 0.3586
8 n51gat:5 n51gat:6 0.1804
9 n51gat:6 n51gat:7 0.2132
10 n51gat:7 inst_60:A1 0.3448
11 n51gat:4 n51gat:8 0.0277
12 n51gat:8 inst_94:A1 0.2232
*END

*D_NET TAUNET_134 0.7059
*CONN
*P n260gat I
*I TAUGATE_134:A I
*CAP
1 n260gat 0.3825
2 TAUNET_134:1 0.0258
3 TAUNET_134:2 0.0722
4 TAUNET_134:3 0.0268
5 TAUNET_134:4 0.0274
6 TAUNET_134:5 0.0955
7 TAUGATE_134:A 0.0758
*RES
2 n260gat TAUNET_134:1 0.0730
3 TAUNET_134:1 TAUNET_134:2 0.2996
4 TAUNET_134:2 TAUNET_134:3 0.1500
5 TAUNET_134:3 TAUNET_134:4 0.2720
6 TAUNET_134:4 TAUNET_134:5 0.0605
7 TAUNET_134:5 TAUGATE_134:A 0.1555
*END

*D_NET TAUNET_284 1.2548
*CONN
*P n219gat I
*I TAUGATE_284:A I
*CAP
1 n219gat 0.2976
2 TAUNET_284:1 0.0316
3 TAUNET_284:2 0.1823
4 TAUNET_284:3 0.0755
5 TAUNET_284:4 0.3163
6 TAUGATE_284:A 0.3515
*RES
2 n219gat TAUNET_284:1 0.2983
3 TAUNET_284:1 TAUNET_284:2 0.4269
4 TAUNET_284:2 TAUNET_284:3 0.0493
5 TAUNET_284:3 TAUNET_284:4 0.0341
6 TAUNET_284:4 TAUGATE_284:A 0.3020
*END

*D_NET n17gat 5.7140
*CONN
*I TAUGATE_271:Z O
*I inst_95:A1 I
*I inst_107:A1 I
*I inst_60:A2 I
*I inst_97:A2 I
*I inst_182:A I
*CAP
1 TAUGATE_271:Z 0.4000
2 n17gat:1 0.4709
3 inst_97:A2 0.4204
4 n17gat:2 0.2956
5 n17gat:3 0.2210
6 inst_107:A1 0.0970
7 n17gat:4 0.2047
8 inst_60:A2 0.3729
9 n17gat:5 0.3083
10 n17gat:6 0.1250
11 n17gat:7 0.3526
12 n17gat:8 0.3715
13 inst_95:A1 0.3144
14 n17gat:9 0.3118
15 n17gat:10 0.4981
16 n17gat:11 0.3134
17 n17gat:12 0.4059
18 n17gat:13 0.1396
19 inst_182:A 0.0910
*RES
2 TAUGATE_271:Z n17gat:1 0.0122
3 n17gat:1 inst_97:A2 0.2688
4 n17gat:1 n17gat:2 0.2798
5 n17gat:2 n17gat:3 0.3150
6 n17gat:3 inst_107:A1 0.0137
7 n17gat:2 n17gat:4 0.0610
8 n17gat:4 inst_60:A2 0.4010
9 n17gat:3 n17gat:5 0.3618
10 n17gat:5 n17gat:6 0.0820
11 n17gat:6 n17gat:7 0.2174
12 n17gat:7 n17gat:8 0.3638
13 n17gat:8 inst_95:A1 0.4097
14 n17gat:4 n17gat:9 0.1278
15 n17gat:9 n17gat:10 0.3093
16 n17gat:10 n17gat:11 0.3342
17 n17gat:11 n17gat:12 0.2150
18 n17gat:12 n17gat:13 0.0109
19 n17gat:13 inst_182:A 0.1830
*END

*D_NET n865gat 0.3175
*CONN
*I TAUGATE_235:Z O
*P n865gat O
*CAP
1 TAUGATE_235:Z 0.0712
2 n865gat:1 0.1986
3 n865gat 0.0476
*RES
2 TAUGATE_235:Z n865gat:1 0.0521
3 n865gat:1 n865gat 0.0546
*END

*D_NET TAUNET_386 1.7875
*CONN
*I inst_210:ZN O
*I TAUGATE_386:A I
*CAP
1 inst_210:ZN 0.2737
2 TAUNET_386:1 0.2677
3 TAUNET_386:2 0.2426
4 TAUNET_386:3 0.1466
5 TAUNET_386:4 0.2784
6 TAUNET_386:5 0.2008
7 TAUGATE_386:A 0.3776
*RES
2 inst_210:ZN TAUNET_386:1 0.2937
3 TAUNET_386:1 TAUNET_386:2 0.0093
4 TAUNET_386:2 TAUNET_386:3 0.2822
5 TAUNET_386:3 TAUNET_386:4 0.4311
6 TAUNET_386:4 TAUNET_386:5 0.0309
7 TAUNET_386:5 TAUGATE_386:A 0.1138
*END

*D_NET TAUNET_267 1.6740
*CONN
*P n135gat I
*I TAUGATE_267:A I
*CAP
1 n135gat 0.3567
2 TAUNET_267:1 0.2336
3 TAUNET_267:2 0.3863
4 TAUNET_267:3 0.2365
5 TAUNET_267:4 0.1037
6 TAUGATE_267:A 0.3572
*RES
2 n135gat TAUNET_267:1 0.2211
3 TAUNET_267:1 TAUNET_267:2 0.2185
4 TAUNET_267:2 TAUNET_267:3 0.2266
5 TAUNET_267:3 TAUNET_267:4 0.2538
6 TAUNET_267:4 TAUGATE_267:A 0.1297
*END

*D_NET TAUNET_362 1.5261
*CONN
*I inst_83:ZN O
*I TAUGATE_362:A I
*CAP
1 inst_83:ZN 0.2417
2 TAUNET_362:1 0.4262
3 TAUNET_362:2 0.3737
4 TAUNET_362:3 0.3015
5 TAUGATE_362:A 0.1830
*RES
2 inst_83:ZN TAUNET_362:1 0.3035
3 TAUNET_362:1 TAUNET_362:2 0.4053
4 TAUNET_362:2 TAUNET_362:3 0.0863
5 TAUNET_362:3 TAUGATE_362:A 0.2362
*END

*D_NET TAUNET_44 1.0858
*CONN
*I TAUGATE_355:Z O
*I TAUGATE_44:A I
*CAP
1 TAUGATE_355:Z 0.0277
2 TAUNET_44:1 0.2912
3 TAUNET_44:2 0.1111
4 TAUNET_44:3 0.3711
5 TAUNET_44:4 0.0512
6 TAUNET_44:5 0.1351
7 TAUGATE_44:A 0.0984
*RES
2 TAUGATE_355:Z TAUNET_44:1 0.0368
3 TAUNET_44:1 TAUNET_44:2 0.4376
4 TAUNET_44:2 TAUNET_44:3 0.1423
5 TAUNET_44:3 TAUNET_44:4 0.1283
6 TAUNET_44:4 TAUNET_44:5 0.1146
7 TAUNET_44:5 TAUGATE_44:A 0.3234
*END

*D_NET TAUNET_207 1.6441
*CONN
*I TAUGATE_30:Z O
*I TAUGATE_207:A I
*CAP
1 TAUGATE_30:Z 0.4832
2 TAUNET_207:1 0.3781
3 TAUNET_207:2 0.3766
4 TAUNET_207:3 0.0185
5 TAUGATE_207:A 0.3877
*RES
2 TAUGATE_30:Z TAUNET_207:1 0.1588
3 TAUNET_207:1 TAUNET_207:2 0.3738
4 TAUNET_207:2 TAUNET_207:3 0.4556
5 TAUNET_207:3 TAUGATE_207:A 0.1835
*END

*D_NET TAUNET_373 1.1460
*CONN
*I inst_28:ZN O
*I TAUGATE_373:A I
*CAP
1 inst_28:ZN 0.2614
2 TAUNET_373:1 0.2164
3 TAUNET_373:2 0.4372
4 TAUNET_373:3 0.1158
5 TAUGATE_373:A 0.1153
*RES
2 inst_28:ZN TAUNET_373:1 0.3810
3 TAUNET_373:1 TAUNET_373:2 0.1100
4 TAUNET_373:2 TAUNET_373:3 0.1662
5 TAUNET_373:3 TAUGATE_373:A 0.3178
*END

*D_NET net_35 1.6719
*CONN
*I TAUGATE_258:Z O
*I inst_60:A4 I
*CAP
1 TAUGATE_258:Z 0.2497
2 net_35:1 0.2343
3 net_35:2 0.0981
4 net_35:3 0.3461
5 net_35:4 0.2382
6 net_35:5 0.4109
7 inst_60:A4 0.0945
*RES
2 TAUGATE_258:Z net_35:1 0.2326
3 net_35:1 net_35:2 0.0121
4 net_35:2 net_35:3 0.2674
5 net_35:3 net_35:4 0.2072
6 net_35:4 net_35:5 0.0414
7 net_35:5 inst_60:A4 0.2455
*END

*D_NET net_16 2.4625
*CONN
*I TAUGATE_163:Z O
*I inst_51:A1 I
*I inst_184:A I
*CAP
1 TAUGATE_163:Z 0.0138
2 net_16:1 0.3131
3 net_16:2 0.4392
4 net_16:3 0.4048
5 net_16:4 0.0368
6 net_16:5 0.3283
7 inst_51:A1 0.2266
8 net_16:6 0.2966
9 net_16:7 0.3013
10 net_16:8 0.0758
11 inst_184:A 0.0262
*RES
2 TAUGATE_163:Z net_16:1 0.4199
3 net_16:1 net_16:2 0.3736
4 net_16:2 net_16:3 0.3306
5 net_16:3 net_16:4 0.3042
6 net_16:4 net_16:5 0.1317
7 net_16:5 inst_51:A1 0.1481
8 net_16:3 net_16:6 0.3812
9 net_16:6 net_16:7 0.0656
10 net_16:7 net_16:8 0.1550
11 net_16:8 inst_184:A 0.0047
*END

*D_NET TAUNET_56 1.6139
*CONN
*I TAUGATE_135:Z O
*I TAUGATE_56:A I
*CAP
1 TAUGATE_135:Z 0.2138
2 TAUNET_56:1 0.2523
3 TAUNET_56:2 0.0497
4 TAUNET_56:3 0.4938
5 TAUNET_56:4 0.3913
6 TAUGATE_56:A 0.2131
*RES
2 TAUGATE_135:Z TAUNET_56:1 0.3201
3 TAUNET_56:1 TAUNET_56:2 0.0320
4 TAUNET_56:2 TAUNET_56:3 0.2786
5 TAUNET_56:3 TAUNET_56:4 0.3378
6 TAUNET_56:4 TAUGATE_56:A 0.4364
*END

*D_NET n74gat 1.5961
*CONN
*I TAUGATE_343:Z O
*I inst_204:A1 I
*CAP
1 TAUGATE_343:Z 0.4527
2 n74gat:1 0.3641
3 n74gat:2 0.1740
4 n74gat:3 0.2701
5 inst_204:A1 0.3351
*RES
2 TAUGATE_343:Z n74gat:1 0.4105
3 n74gat:1 n74gat:2 0.3004
4 n74gat:2 n74gat:3 0.3665
5 n74gat:3 inst_204:A1 0.1341
*END

*D_NET net_193 0.7589
*CONN
*I TAUGATE_257:Z O
*I inst_79:A1 I
*CAP
1 TAUGATE_257:Z 0.1706
2 net_193:1 0.0751
3 net_193:2 0.1227
4 net_193:3 0.0294
5 net_193:4 0.0059
6 inst_79:A1 0.3552
*RES
2 TAUGATE_257:Z net_193:1 0.3839
3 net_193:1 net_193:2 0.1840
4 net_193:2 net_193:3 0.4010
5 net_193:3 net_193:4 0.3573
6 net_193:4 inst_79:A1 0.4559
*END

*D_NET net_120 1.8802
*CONN
*I TAUGATE_286:Z O
*I inst_66:A3 I
*CAP
1 TAUGATE_286:Z 0.1715
2 net_120:1 0.3594
3 net_120:2 0.4902
4 net_120:3 0.4716
5 net_120:4 0.2112
6 inst_66:A3 0.1762
*RES
2 TAUGATE_286:Z net_120:1 0.1166
3 net_120:1 net_120:2 0.1660
4 net_120:2 net_120:3 0.2177
5 net_120:3 net_120:4 0.2908
6 net_120:4 inst_66:A3 0.3318
*END

*D_NET TAUNET_346 1.3234
*CONN
*I TAUGATE_29:Z O
*I TAUGATE_346:A I
*CAP
1 TAUGATE_29:Z 0.4080
2 TAUNET_346:1 0.1932
3 TAUNET_346:2 0.0675
4 TAUNET_346:3 0.0053
5 TAUNET_346:4 0.1459
6 TAUNET_346:5 0.0437
7 TAUGATE_346:A 0.4598
*RES
2 TAUGATE_29:Z TAUNET_346:1 0.3838
3 TAUNET_346:1 TAUNET_346:2 0.2033
4 TAUNET_346:2 TAUNET_346:3 0.3263
5 TAUNET_346:3 TAUNET_346:4 0.4574
6 TAUNET_346:4 TAUNET_346:5 0.4683
7 TAUNET_346:5 TAUGATE_346:A 0.1543
*END

*D_NET TAUNET_142 1.8258
*CONN
*I inst_170:ZN O
*I TAUGATE_142:A I
*CAP
1 inst_170:ZN 0.1669
2 TAUNET_142:1 0.4518
3 TAUNET_142:2 0.0570
4 TAUNET_142:3 0.4909
5 TAUNET_142:4 0.0572
6 TAUNET_142:5 0.5008
7 TAUGATE_142:A 0.1013
*RES
2 inst_170:ZN TAUNET_142:1 0.2457
3 TAUNET_142:1 TAUNET_142:2 0.4210
4 TAUNET_142:2 TAUNET_142:3 0.2594
5 TAUNET_142:3 TAUNET_142:4 0.3565
6 TAUNET_142:4 TAUNET_142:5 0.4074
7 TAUNET_142:5 TAUGATE_142:A 0.4309
*END

*D_NET TAUNET_211 1.6029
*CONN
*P n246gat I
*I TAUGATE_211:A I
*CAP
1 n246gat 0.2931
2 TAUNET_211:1 0.2246
3 TAUNET_211:2 0.3320
4 TAUNET_211:3 0.3870
5 TAUGATE_211:A 0.3663
*RES
2 n246gat TAUNET_211:1 0.1512
3 TAUNET_211:1 TAUNET_211:2 0.1368
4 TAUNET_211:2 TAUNET_211:3 0.4493
5 TAUNET_211:3 TAUGATE_211:A 0.4663
*END

*D_NET TAUNET_221 1.5003
*CONN
*I TAUGATE_52:Z O
*I TAUGATE_221:A I
*CAP
1 TAUGATE_52:Z 0.1873
2 TAUNET_221:1 0.3589
3 TAUNET_221:2 0.4697
4 TAUGATE_221:A 0.4844
*RES
2 TAUGATE_52:Z TAUNET_221:1 0.0401
3 TAUNET_221:1 TAUNET_221:2 0.2861
4 TAUNET_221:2 TAUGATE_221:A 0.1883
*END

*D_NET net_109 1.2973
*CONN
*I TAUGATE_103:Z O
*I inst_201:A1 I
*CAP
1 TAUGATE_103:Z 0.0604
2 net_109:1 0.2921
3 net_109:2 0.4162
4 net_109:3 0.1285
5 net_109:4 0.0491
6 inst_201:A1 0.3511
*RES
2 TAUGATE_103:Z net_109:1 0.2111
3 net_109:1 net_109:2 0.3010
4 net_109:2 net_109:3 0.1515
5 net_109:3 net_109:4 0.0492
6 net_109:4 inst_201:A1 0.2707
*END

*D_NET net_65 0.7974
*CONN
*I TAUGATE_231:Z O
*I inst_62:A4 I
*CAP
1 TAUGATE_231:Z 0.2365
2 net_65:1 0.2080
3 inst_62:A4 0.3529
*RES
2 TAUGATE_231:Z net_65:1 0.4886
3 net_65:1 inst_62:A4 0.3648
*END

*D_NET net_80 1.5829
*CONN
*I TAUGATE_138:Z O
*I inst_80:A2 I
*CAP
1 TAUGATE_138:Z 0.3187
2 net_80:1 0.0224
3 net_80:2 0.4026
4 net_80:3 0.2784
5 net_80:4 0.1803
6 net_80:5 0.0882
7 inst_80:A2 0.2924
*RES
2 TAUGATE_138:Z net_80:1 0.4780
3 net_80:1 net_80:2 0.3510
4 net_80:2 net_80:3 0.1182
5 net_80:3 net_80:4 0.2614
6 net_80:4 net_80:5 0.1530
7 net_80:5 inst_80:A2 0.2582
*END

*D_NET TAUNET_81 1.1301
*CONN
*I inst_123:ZN O
*I TAUGATE_81:A I
*CAP
1 inst_123:ZN 0.0762
2 TAUNET_81:1 0.3922
3 TAUNET_81:2 0.3950
4 TAUGATE_81:A 0.2666
*RES
2 inst_123:ZN TAUNET_81:1 0.4255
3 TAUNET_81:1 TAUNET_81:2 0.4671
4 TAUNET_81:2 TAUGATE_81:A 0.2972
*END

*D_NET TAUNET_357 2.1171
*CONN
*I inst_121:ZN O
*I TAUGATE_357:A I
*CAP
1 inst_121:ZN 0.4880
2 TAUNET_357:1 0.3167
3 TAUNET_357:2 0.3376
4 TAUNET_357:3 0.1073
5 TAUNET_357:4 0.3579
6 TAUNET_357:5 0.1300
7 TAUGATE_357:A 0.3795
*RES
2 inst_121:ZN TAUNET_357:1 0.2362
3 TAUNET_357:1 TAUNET_357:2 0.1908
4 TAUNET_357:2 TAUNET_357:3 0.1996
5 TAUNET_357:3 TAUNET_357:4 0.3123
6 TAUNET_357:4 TAUNET_357:5 0.1251
7 TAUNET_357:5 TAUGATE_357:A 0.0048
*END

*D_NET TAUNET_189 0.7154
*CONN
*P n73gat I
*I TAUGATE_189:A I
*CAP
1 n73gat 0.0195
2 TAUNET_189:1 0.3700
3 TAUGATE_189:A 0.3260
*RES
2 n73gat TAUNET_189:1 0.3466
3 TAUNET_189:1 TAUGATE_189:A 0.4948
*END

*D_NET TAUNET_154 0.7773
*CONN
*P n183gat I
*I TAUGATE_154:A I
*CAP
1 n183gat 0.1954
2 TAUNET_154:1 0.4904
3 TAUGATE_154:A 0.0915
*RES
2 n183gat TAUNET_154:1 0.4619
3 TAUNET_154:1 TAUGATE_154:A 0.1065
*END

*D_NET net_96 2.8401
*CONN
*I TAUGATE_351:Z O
*I inst_140:A2 I
*I inst_144:A2 I
*I inst_56:A2 I
*CAP
1 TAUGATE_351:Z 0.2576
2 net_96:1 0.2231
3 inst_144:A2 0.2934
4 net_96:2 0.1980
5 inst_140:A2 0.3226
6 net_96:3 0.4631
7 net_96:4 0.0407
8 net_96:5 0.4130
9 net_96:6 0.3462
10 net_96:7 0.0714
11 inst_56:A2 0.2110
*RES
2 TAUGATE_351:Z net_96:1 0.0661
3 net_96:1 inst_144:A2 0.0281
4 net_96:1 net_96:2 0.1282
5 net_96:2 inst_140:A2 0.2766
6 net_96:2 net_96:3 0.2588
7 net_96:3 net_96:4 0.0339
8 net_96:4 net_96:5 0.0519
9 net_96:5 net_96:6 0.4874
10 net_96:6 net_96:7 0.0374
11 net_96:7 inst_56:A2 0.2489
*END

*D_NET n446gat 1.1295
*CONN
*I TAUGATE_121:Z O
*P n446gat O
*CAP
1 TAUGATE_121:Z 0.0346
2 n446gat:1 0.0645
3 n446gat:2 0.3416
4 n446gat:3 0.4099
5 n446gat:4 0.1540
6 n446gat:5 0.0325
7 n446gat 0.0924
*RES
2 TAUGATE_121:Z n446gat:1 0.1850
3 n446gat:1 n446gat:2 0.1516
4 n446gat:2 n446gat:3 0.2746
5 n446gat:3 n446gat:4 0.4228
6 n446gat:4 n446gat:5 0.1417
7 n446gat:5 n446gat 0.3754
*END

*D_NET net_167 0.9794
*CONN
*I TAUGATE_398:Z O
*I inst_67:A2 I
*CAP
1 TAUGATE_398:Z 0.0068
2 net_167:1 0.4220
3 net_167:2 0.4926
4 inst_67:A2 0.0580
*RES
2 TAUGATE_398:Z net_167:1 0.3810
3 net_167:1 net_167:2 0.2195
4 net_167:2 inst_67:A2 0.2042
*END

*D_NET net_136 2.9641
*CONN
*I TAUGATE_335:Z O
*I inst_42:A2 I
*I inst_23:A I
*CAP
1 TAUGATE_335:Z 0.2656
2 net_136:1 0.1336
3 net_136:2 0.4042
4 net_136:3 0.0451
5 net_136:4 0.2391
6 net_136:5 0.0321
7 inst_42:A2 0.4146
8 net_136:6 0.1903
9 net_136:7 0.2143
10 net_136:8 0.0701
11 net_136:9 0.2421
12 net_136:10 0.4634
13 inst_23:A 0.2497
*RES
2 TAUGATE_335:Z net_136:1 0.0857
3 net_136:1 net_136:2 0.2654
4 net_136:2 net_136:3 0.2245
5 net_136:3 net_136:4 0.4797
6 net_136:4 net_136:5 0.0551
7 net_136:5 inst_42:A2 0.1877
8 net_136:1 net_136:6 0.2766
9 net_136:6 net_136:7 0.3086
10 net_136:7 net_136:8 0.2353
11 net_136:8 net_136:9 0.4838
12 net_136:9 net_136:10 0.0722
13 net_136:10 inst_23:A 0.3539
*END

*D_NET TAUNET_15 1.2346
*CONN
*I TAUGATE_295:Z O
*I TAUGATE_15:A I
*CAP
1 TAUGATE_295:Z 0.0192
2 TAUNET_15:1 0.4054
3 TAUNET_15:2 0.3681
4 TAUGATE_15:A 0.4419
*RES
2 TAUGATE_295:Z TAUNET_15:1 0.1561
3 TAUNET_15:1 TAUNET_15:2 0.1347
4 TAUNET_15:2 TAUGATE_15:A 0.0224
*END

*D_NET net_126 4.9357
*CONN
*I TAUGATE_360:Z O
*I inst_155:A1 I
*I inst_35:A2 I
*I inst_69:A2 I
*CAP
1 TAUGATE_360:Z 0.2244
2 net_126:1 0.1374
3 net_126:2 0.1713
4 net_126:3 0.2153
5 net_126:4 0.3119
6 net_126:5 0.4918
7 inst_69:A2 0.3583
8 net_126:6 0.4721
9 net_126:7 0.1185
10 net_126:8 0.4585
11 inst_35:A2 0.3703
12 net_126:9 0.1640
13 net_126:10 0.1778
14 net_126:11 0.3155
15 net_126:12 0.4909
16 net_126:13 0.2285
17 inst_155:A1 0.2293
*RES
2 TAUGATE_360:Z net_126:1 0.0251
3 net_126:1 net_126:2 0.0071
4 net_126:2 net_126:3 0.2242