*SPEF "IEEE 1481-1998"
*DESIGN "changes"
*DATE "Tue Dec 02 20:02:01 2014"
*VENDOR "TAU 2015 Contest"
*PROGRAM "Benchmark Parasitic Generator"
*VERSION "0.0"
*DESIGN_FLOW "NETLIST_TYPE_VERILOG"
*DIVIDER /
*DELIMITER :
*BUS_DELIMITER []
*T_UNIT 1 PS
*C_UNIT 1 FF
*R_UNIT 1 KOHM
*L_UNIT 1 UH

*NAME_MAP
*243 TAUNET_84
*242 TAUNET_6
*241 TAUNET_47
*240 TAUNET_2
*239 TAUNET_26
*237 TAUNET_8
*235 TAUNET_69
*234 TAUNET_36
*231 TAUGATE_10
*226 TAUNET_15
*225 TAUGATE_17
*224 TAUNET_99
*218 TAUGATE_6
*217 TAUNET_45
*216 TAUNET_3
*214 TAUNET_89
*213 TAUGATE_42
*212 TAUNET_42
*215 TAUNET_18
*209 TAUNET_7
*204 TAUNET_61
*203 TAUGATE_52
*202 TAUNET_52
*201 TAUNET_64
*200 TAUGATE_47
*199 net_9
*198 net_10
*195 net_2
*194 TAUGATE_63
*192 TAUNET_58
*189 TAUGATE_41
*186 TAUGATE_48
*233 TAUNET_79
*185 TAUNET_22
*219 TAUNET_21
*184 TAUNET_33
*182 TAUNET_11
*178 TAUNET_98
*176 TAUNET_56
*175 TAUNET_102
*174 TAUGATE_68
*173 TAUNET_68
*172 TAUGATE_43
*171 TAUNET_43
*228 TAUNET_17
*170 net_16
*168 net_3
*167 inst_5
*73 TAUNET_62
*70 TAUGATE_27
*68 TAUGATE_71
*78 TAUGATE_19
*67 inst_0
*23 inst_2
*71 TAUNET_91
*183 TAUGATE_11
*155 TAUNET_100
*152 TAUNET_83
*64 TAUGATE_91
*122 TAUNET_49
*190 TAUNET_30
*69 TAUNET_27
*55 TAUNET_16
*87 reset_net
*223 TAUNET_94
*54 TAUGATE_24
*41 net_12
*51 TAUGATE_85
*36 TAUNET_90
*17 TAUGATE_8
*43 inst_14
*48 TAUNET_86
*25 TAUGATE_86
*191 TAUNET_88
*93 TAUGATE_45
*165 TAUGATE_7
*144 inst_10
*15 TAUGATE_80
*53 TAUGATE_94
*65 TAUGATE_25
*42 TAUGATE_54
*14 TAUGATE_1
*80 net_5
*116 TAUGATE_66
*24 TAUNET_35
*27 TAUNET_78
*38 TAUGATE_90
*8 TAUGATE_67
*37 inst_9
*232 TAUNET_101
*11 TAUGATE_26
*76 TAUGATE_28
*164 TAUNET_44
*100 net_13
*46 TAUNET_46
*3 TAUGATE_13
*2 TAUGATE_93
*85 TAUNET_9
*181 inst_8
*111 TAUNET_60
*101 TAUGATE_73
*16 TAUNET_75
*221 G17
*30 TAUNET_77
*142 inst_7
*66 TAUNET_71
*72 G0
*47 TAUGATE_46
*149 TAUNET_92
*193 TAUNET_5
*7 TAUNET_4
*92 TAUNET_37
*63 TAUNET_25
*107 TAUGATE_14
*57 TAUGATE_16
*197 inst_4
*35 TAUGATE_70
*26 TAUGATE_35
*230 TAUNET_10
*5 TAUGATE_76
*18 TAUGATE_75
*49 TAUNET_85
*147 TAUGATE_102
*60 TAUNET_31
*39 TAUNET_76
*20 TAUGATE_61
*74 TAUGATE_62
*44 inst_15
*62 TAUGATE_31
*206 TAUNET_59
*29 TAUGATE_78
*77 TAUNET_57
*10 TAUNET_97
*137 TAUGATE_72
*28 TAUGATE_40
*104 TAUGATE_20
*45 inst_16
*162 TAUNET_54
*50 TAUGATE_18
*102 TAUNET_40
*19 TAUNET_1
*22 TAUGATE_99
*88 TAUGATE_84
*32 TAUGATE_77
*133 TAUGATE_50
*31 TAUGATE_37
*105 TAUNET_14
*34 G1
*158 TAUGATE_81
*79 TAUGATE_57
*89 inst_13
*82 TAUNET_65
*146 net_15
*1 TAUNET_13
*84 TAUGATE_65
*140 TAUGATE_39
*75 TAUNET_28
*91 inst_1
*12 TAUGATE_97
*94 TAUNET_32
*227 TAUNET_95
*95 TAUGATE_55
*236 TAUNET_53
*97 TAUNET_38
*6 TAUGATE_12
*98 TAUGATE_95
*99 TAUGATE_38
*103 TAUNET_20
*13 TAUNET_80
*145 TAUNET_51
*106 TAUGATE_98
*238 net_8
*52 TAUNET_24
*4 TAUNET_12
*108 net_11
*109 TAUGATE_89
*110 TAUNET_73
*229 TAUGATE_101
*112 inst_3
*81 TAUGATE_88
*123 G2
*113 TAUGATE_60
*205 TAUGATE_29
*90 net_14
*128 TAUGATE_87
*114 TAUNET_66
*58 net_7
*56 TAUGATE_58
*141 net_4
*9 TAUGATE_4
*96 TAUGATE_32
*115 TAUGATE_2
*117 TAUNET_96
*118 TAUGATE_96
*119 TAUNET_82
*220 TAUGATE_21
*138 TAUNET_39
*121 TAUGATE_82
*124 TAUGATE_49
*188 TAUNET_41
*126 TAUGATE_5
*21 net_6
*154 TAUGATE_83
*179 inst_11
*127 TAUNET_87
*222 TAUNET_29
*83 TAUGATE_30
*129 TAUNET_74
*130 inst_12
*125 TAUNET_93
*120 TAUGATE_33
*131 TAUGATE_74
*40 TAUGATE_3
*59 TAUGATE_56
*33 TAUNET_70
*161 TAUGATE_79
*210 TAUNET_48
*177 TAUNET_55
*134 TAUNET_23
*135 TAUGATE_23
*208 TAUNET_81
*136 TAUNET_72
*187 TAUGATE_22
*169 TAUGATE_69
*160 G3
*139 TAUGATE_64
*156 TAUGATE_100
*166 TAUNET_67
*207 TAUGATE_59
*143 TAUGATE_51
*196 TAUGATE_53
*132 TAUNET_50
*148 inst_6
*150 TAUGATE_34
*211 TAUNET_63
*151 TAUGATE_92
*61 TAUGATE_44
*153 TAUGATE_36
*157 TAUNET_19
*180 net_1
*86 TAUGATE_9
*159 TAUNET_34
*163 TAUGATE_15


*D_NET *1 1.7439
*CONN
*I *2:Z O
*I *3:A I
*CAP
1 *2:Z 0.2611
2 *1:1 0.4098
3 *1:2 0.5009
4 *1:3 0.2843
5 *3:A 0.2878
*RES
1 *2:Z *1:1 0.1659
2 *1:1 *1:2 0.2742
3 *1:2 *1:3 0.3494
4 *1:3 *3:A 0.1485
*END

*D_NET *4 1.376
*CONN
*I *5:Z O
*I *6:A I
*CAP
1 *5:Z 0.211
2 *4:1 0.307
3 *4:2 0.3583
4 *4:3 0.1395
5 *4:4 0.0646
6 *4:5 0.0794
7 *6:A 0.2161
*RES
1 *5:Z *4:1 0.1614
2 *4:1 *4:2 0.3312
3 *4:2 *4:3 0.3755
4 *4:3 *4:4 0.4644
5 *4:4 *4:5 0.4559
6 *4:5 *6:A 0.405
*END

*D_NET *7 0.4849
*CONN
*I *8:Z O
*I *9:A I
*CAP
1 *8:Z 0.167
2 *7:1 0.244
3 *7:2 0.0332
4 *9:A 0.0406
*RES
1 *8:Z *7:1 0.2732
2 *7:1 *7:2 0.0073
3 *7:2 *9:A 0.1308
*END

*D_NET *10 1.8161
*CONN
*I *11:Z O
*I *12:A I
*CAP
1 *11:Z 0.2909
2 *10:1 0.074
3 *10:2 0.4871
4 *10:3 0.4951
5 *10:4 0.4125
6 *12:A 0.0565
*RES
1 *11:Z *10:1 0.1285
2 *10:1 *10:2 0.0292
3 *10:2 *10:3 0.2926
4 *10:3 *10:4 0.4507
5 *10:4 *12:A 0.3356
*END

*D_NET *13 1.9602
*CONN
*I *14:Z O
*I *15:A I
*CAP
1 *14:Z 0.3845
2 *13:1 0.3056
3 *13:2 0.3464
4 *13:3 0.0305
5 *13:4 0.2383
6 *13:5 0.402
7 *15:A 0.2529
*RES
1 *14:Z *13:1 0.2665
2 *13:1 *13:2 0.4354
3 *13:2 *13:3 0.1977
4 *13:3 *13:4 0.0788
5 *13:4 *13:5 0.3276
6 *13:5 *15:A 0.3833
*END

*D_NET *16 0.867
*CONN
*I *17:Z O
*I *18:A I
*CAP
1 *17:Z 0.0716
2 *16:1 0.1922
3 *16:2 0.2805
4 *16:3 0.1322
5 *18:A 0.1905
*RES
1 *17:Z *16:1 0.4017
2 *16:1 *16:2 0.468
3 *16:2 *16:3 0.2976
4 *16:3 *18:A 0.2331
*END

*D_NET *19 1.3358
*CONN
*I *20:Z O
*I *14:A I
*CAP
1 *20:Z 0.3943
2 *19:1 0.1955
3 *19:2 0.1868
4 *19:3 0.4889
5 *14:A 0.0703
*RES
1 *20:Z *19:1 0.3298
2 *19:1 *19:2 0.4131
3 *19:2 *19:3 0.331
4 *19:3 *14:A 0.2621
*END

*D_NET *21 0.9833
*CONN
*I *22:Z O
*I *23:A1 I
*CAP
1 *22:Z 0.1808
2 *21:1 0.399
3 *23:A1 0.4035
*RES
1 *22:Z *21:1 0.0219
2 *21:1 *23:A1 0.083
*END

*D_NET *24 1.6212
*CONN
*I *25:Z O
*I *26:A I
*CAP
1 *25:Z 0.125
2 *24:1 0.4976
3 *24:2 0.3591
4 *24:3 0.278
5 *24:4 0.2022
6 *26:A 0.1593
*RES
1 *25:Z *24:1 0.4382
2 *24:1 *24:2 0.3498
3 *24:2 *24:3 0.4055
4 *24:3 *24:4 0.4519
5 *24:4 *26:A 0.4658
*END

*D_NET *27 1.1222
*CONN
*I *28:Z O
*I *29:A I
*CAP
1 *28:Z 0.4019
2 *27:1 0.2503
3 *29:A 0.47
*RES
1 *28:Z *27:1 0.3789
2 *27:1 *29:A 0.3545
*END

*D_NET *30 1.0398
*CONN
*I *31:Z O
*I *32:A I
*CAP
1 *31:Z 0.4316
2 *30:1 0.4734
3 *30:2 0.0376
4 *32:A 0.0972
*RES
1 *31:Z *30:1 0.3594
2 *30:1 *30:2 0.0525
3 *30:2 *32:A 0.3248
*END

*D_NET *33 1.7532
*CONN
*P *34 I
*I *35:A I
*CAP
1 *34 0.1267
2 *33:1 0.2434
3 *33:2 0.3726
4 *33:3 0.298
5 *33:4 0.2454
6 *35:A 0.467
*RES
1 *34 *33:1 0.1921
2 *33:1 *33:2 0.1376
3 *33:2 *33:3 0.4443
4 *33:3 *33:4 0.1288
5 *33:4 *35:A 0.3022
*END

*D_NET *36 1.8873
*CONN
*I *37:ZN O
*I *38:A I
*CAP
1 *37:ZN 0.0668
2 *36:1 0.4131
3 *36:2 0.4004
4 *36:3 0.4814
5 *36:4 0.1341
6 *38:A 0.3915
*RES
1 *37:ZN *36:1 0.0282
2 *36:1 *36:2 0.3089
3 *36:2 *36:3 0.0253
4 *36:3 *36:4 0.3105
5 *36:4 *38:A 0.1881
*END

*D_NET *39 1.4805
*CONN
*I *40:Z O
*I *5:A I
*CAP
1 *40:Z 0.1592
2 *39:1 0.2761
3 *39:2 0.3643
4 *39:3 0.2288
5 *39:4 0.0666
6 *5:A 0.3854
*RES
1 *40:Z *39:1 0.358
2 *39:1 *39:2 0.3774
3 *39:2 *39:3 0.2731
4 *39:3 *39:4 0.1525
5 *39:4 *5:A 0.0518
*END

*D_NET *41 2.3442
*CONN
*I *42:Z O
*I *43:RN I
*I *44:RN I
*I *45:RN I
*CAP
1 *42:Z 0.2154
2 *41:1 0.1648
3 *41:2 0.1855
4 *41:3 0.0112
5 *41:4 0.353
6 *41:5 0.1128
7 *44:RN 0.2239
8 *41:6 0.4381
9 *41:7 0.3484
10 *43:RN 0.0801
11 *41:8 0.051
12 *45:RN 0.16
*RES
1 *42:Z *41:1 0.0917
2 *41:1 *41:2 0.423
3 *41:2 *41:3 0.1494
4 *41:3 *41:4 0.329
5 *41:4 *41:5 0.162
6 *41:5 *44:RN 0.0029
7 *41:4 *41:6 0.1392
8 *41:6 *41:7 0.1891
9 *41:7 *43:RN 0.0464
10 *41:7 *41:8 0.1748
11 *41:8 *45:RN 0.4787
*END

*D_NET *46 1.6741
*CONN
*I *23:ZN O
*I *47:A I
*CAP
1 *23:ZN 0.4606
2 *46:1 0.4657
3 *46:2 0.3595
4 *46:3 0.2471
5 *46:4 0.0832
6 *47:A 0.058
*RES
1 *23:ZN *46:1 0.3736
2 *46:1 *46:2 0.0395
3 *46:2 *46:3 0.3644
4 *46:3 *46:4 0.0829
5 *46:4 *47:A 0.1977
*END

*D_NET *48 2.1119
*CONN
*I *45:QN O
*I *25:A I
*CAP
1 *45:QN 0.3877
2 *48:1 0.495
3 *48:2 0.0413
4 *48:3 0.4651
5 *48:4 0.4065
6 *25:A 0.3164
*RES
1 *45:QN *48:1 0.3513
2 *48:1 *48:2 0.1165
3 *48:2 *48:3 0.0986
4 *48:3 *48:4 0.2243
5 *48:4 *25:A 0.1286
*END

*D_NET *49 1.4306
*CONN
*I *50:Z O
*I *51:A I
*CAP
1 *50:Z 0.2482
2 *49:1 0.1533
3 *49:2 0.4091
4 *49:3 0.2613
5 *51:A 0.3587
*RES
1 *50:Z *49:1 0.1869
2 *49:1 *49:2 0.4974
3 *49:2 *49:3 0.3047
4 *49:3 *51:A 0.12
*END

*D_NET *52 0.527
*CONN
*I *53:Z O
*I *54:A I
*CAP
1 *53:Z 0.121
2 *52:1 0.1014
3 *52:2 0.0283
4 *54:A 0.2763
*RES
1 *53:Z *52:1 0.2945
2 *52:1 *52:2 0.3177
3 *52:2 *54:A 0.2101
*END

*D_NET *55 1.4286
*CONN
*I *56:Z O
*I *57:A I
*CAP
1 *56:Z 0.2046
2 *55:1 0.1317
3 *55:2 0.3617
4 *55:3 0.0856
5 *55:4 0.3629
6 *57:A 0.2821
*RES
1 *56:Z *55:1 0.39
2 *55:1 *55:2 0.0557
3 *55:2 *55:3 0.1253
4 *55:3 *55:4 0.2716
5 *55:4 *57:A 0.3735
*END

*D_NET *58 1.5454
*CONN
*I *59:Z O
*I *37:A I
*CAP
1 *59:Z 0.3323
2 *58:1 0.0362
3 *58:2 0.4966
4 *58:3 0.4101
5 *37:A 0.2702
*RES
1 *59:Z *58:1 0.2135
2 *58:1 *58:2 0.0419
3 *58:2 *58:3 0.2773
4 *58:3 *37:A 0.0903
*END

*D_NET *60 2.3457
*CONN
*I *61:Z O
*I *62:A I
*CAP
1 *61:Z 0.4602
2 *60:1 0.2009
3 *60:2 0.3114
4 *60:3 0.309
5 *60:4 0.3972
6 *60:5 0.4228
7 *62:A 0.2443
*RES
1 *61:Z *60:1 0.2458
2 *60:1 *60:2 0.3734
3 *60:2 *60:3 0.1567
4 *60:3 *60:4 0.1247
5 *60:4 *60:5 0.2439
6 *60:5 *62:A 0.2588
*END

*D_NET *63 0.9945
*CONN
*I *64:Z O
*I *65:A I
*CAP
1 *64:Z 0.3528
2 *63:1 0.4436
3 *65:A 0.1981
*RES
1 *64:Z *63:1 0.3275
2 *63:1 *65:A 0.0169
*END

*D_NET *66 1.2825
*CONN
*I *67:ZN O
*I *68:A I
*CAP
1 *67:ZN 0.4684
2 *66:1 0.0579
3 *66:2 0.0423
4 *66:3 0.2861
5 *68:A 0.4278
*RES
1 *67:ZN *66:1 0.3875
2 *66:1 *66:2 0.4796
3 *66:2 *66:3 0.374
4 *66:3 *68:A 0.1554
*END

*D_NET *69 2.4087
*CONN
*I *18:Z O
*I *70:A I
*CAP
1 *18:Z 0.438
2 *69:1 0.499
3 *69:2 0.2134
4 *69:3 0.1115
5 *69:4 0.4947
6 *69:5 0.3666
7 *70:A 0.2854
*RES
1 *18:Z *69:1 0.4464
2 *69:1 *69:2 0.2438
3 *69:2 *69:3 0.2969
4 *69:3 *69:4 0.3091
5 *69:4 *69:5 0.5006
6 *69:5 *70:A 0.2264
*END

*D_NET *71 1.1017
*CONN
*P *72 I
*I *64:A I
*CAP
1 *72 0.2044
2 *71:1 0.3886
3 *71:2 0.2618
4 *64:A 0.2468
*RES
1 *72 *71:1 0.4002
2 *71:1 *71:2 0.3652
3 *71:2 *64:A 0.1857
*END

*D_NET *73 1.1556
*CONN
*I *9:Z O
*I *74:A I
*CAP
1 *9:Z 0.0882
2 *73:1 0.2715
3 *73:2 0.0199
4 *73:3 0.4145
5 *73:4 0.1459
6 *73:5 0.113
7 *74:A 0.1026
*RES
1 *9:Z *73:1 0.1939
2 *73:1 *73:2 0.1095
3 *73:2 *73:3 0.0212
4 *73:3 *73:4 0.1417
5 *73:4 *73:5 0.219
6 *73:5 *74:A 0.4826
*END

*D_NET *75 1.4876
*CONN
*I *35:Z O
*I *76:A I
*CAP
1 *35:Z 0.4033
2 *75:1 0.254
3 *75:2 0.0526
4 *75:3 0.2388
5 *75:4 0.1787
6 *76:A 0.3603
*RES
1 *35:Z *75:1 0.0603
2 *75:1 *75:2 0.0863
3 *75:2 *75:3 0.3102
4 *75:3 *75:4 0.1239
5 *75:4 *76:A 0.2473
*END

*D_NET *77 1.8437
*CONN
*I *78:Z O
*I *79:A I
*CAP
1 *78:Z 0.4935
2 *77:1 0.3995
3 *77:2 0.4441
4 *77:3 0.4218
5 *79:A 0.0848
*RES
1 *78:Z *77:1 0.0266
2 *77:1 *77:2 0.0274
3 *77:2 *77:3 0.4218
4 *77:3 *79:A 0.2061
*END

*D_NET *80 1.6754
*CONN
*I *81:Z O
*I *67:A2 I
*CAP
1 *81:Z 0.4583
2 *80:1 0.0145
3 *80:2 0.0725
4 *80:3 0.4492
5 *80:4 0.3124
6 *67:A2 0.3685
*RES
1 *81:Z *80:1 0.4317
2 *80:1 *80:2 0.1801
3 *80:2 *80:3 0.2826
4 *80:3 *80:4 0.342
5 *80:4 *67:A2 0.0965
*END

*D_NET *82 1.1961
*CONN
*I *83:Z O
*I *84:A I
*CAP
1 *83:Z 0.1304
2 *82:1 0.4634
3 *82:2 0.2869
4 *82:3 0.1646
5 *82:4 0.1182
6 *84:A 0.0327
*RES
1 *83:Z *82:1 0.0608
2 *82:1 *82:2 0.3721
3 *82:2 *82:3 0.4648
4 *82:3 *82:4 0.2376
5 *82:4 *84:A 0.1146
*END

*D_NET *85 0.6447
*CONN
*I *51:Z O
*I *86:A I
*CAP
1 *51:Z 0.1439
2 *85:1 0.2502
3 *86:A 0.2506
*RES
1 *51:Z *85:1 0.4486
2 *85:1 *86:A 0.0641
*END

*D_NET *87 0.3299
*CONN
*I *88:Z O
*I *89:A I
*CAP
1 *88:Z 0.0079
2 *87:1 0.2219
3 *89:A 0.1001
*RES
1 *88:Z *87:1 0.2747
2 *87:1 *89:A 0.1704
*END

*D_NET *90 0.1666
*CONN
*I *29:Z O
*I *91:A1 I
*CAP
1 *29:Z 0.0121
2 *90:1 0.0267
3 *91:A1 0.1278
*RES
1 *29:Z *90:1 0.1079
2 *90:1 *91:A1 0.3621
*END

*D_NET *92 2.0149
*CONN
*I *93:Z O
*I *31:A I
*CAP
1 *93:Z 0.349
2 *92:1 0.3195
3 *92:2 0.4748
4 *92:3 0.2505
5 *92:4 0.2036
6 *92:5 0.399
7 *31:A 0.0185
*RES
1 *93:Z *92:1 0.3777
2 *92:1 *92:2 0.2437
3 *92:2 *92:3 0.3641
4 *92:3 *92:4 0.1411
5 *92:4 *92:5 0.2452
6 *92:5 *31:A 0.2723
*END

*D_NET *94 0.3445
*CONN
*I *95:Z O
*I *96:A I
*CAP
1 *95:Z 0.2449
2 *94:1 0.0917
3 *96:A 0.0078
*RES
1 *95:Z *94:1 0.0227
2 *94:1 *96:A 0.0264
*END

*D_NET *97 0.9773
*CONN
*I *98:Z O
*I *99:A I
*CAP
1 *98:Z 0.1906
2 *97:1 0.0937
3 *97:2 0.2944
4 *99:A 0.3987
*RES
1 *98:Z *97:1 0.0209
2 *97:1 *97:2 0.1182
3 *97:2 *99:A 0.1067
*END

*D_NET *100 2.0282
*CONN
*I *101:Z O
*I *45:D I
*CAP
1 *101:Z 0.3672
2 *100:1 0.1157
3 *100:2 0.1901
4 *100:3 0.2138
5 *100:4 0.5008
6 *100:5 0.2979
7 *45:D 0.3428
*RES
1 *101:Z *100:1 0.2325
2 *100:1 *100:2 0.2733
3 *100:2 *100:3 0.1266
4 *100:3 *100:4 0.3814
5 *100:4 *100:5 0.1363
6 *100:5 *45:D 0.3277
*END

*D_NET *102 1.768
*CONN
*I *15:Z O
*I *28:A I
*CAP
1 *15:Z 0.4503
2 *102:1 0.1603
3 *102:2 0.4423
4 *102:3 0.1159
5 *102:4 0.4527
6 *28:A 0.1465
*RES
1 *15:Z *102:1 0.1463
2 *102:1 *102:2 0.4621
3 *102:2 *102:3 0.4065
4 *102:3 *102:4 0.0227
5 *102:4 *28:A 0.2236
*END

*D_NET *103 1.0395
*CONN
*I *74:Z O
*I *104:A I
*CAP
1 *74:Z 0.0715
2 *103:1 0.1861
3 *103:2 0.4367
4 *104:A 0.3452
*RES
1 *74:Z *103:1 0.0313
2 *103:1 *103:2 0.1217
3 *103:2 *104:A 0.0111
*END

*D_NET *105 1.2561
*CONN
*I *106:Z O
*I *107:A I
*CAP
1 *106:Z 0.0613
2 *105:1 0.4407
3 *105:2 0.4978
4 *107:A 0.2563
*RES
1 *106:Z *105:1 0.2595
2 *105:1 *105:2 0.2603
3 *105:2 *107:A 0.2874
*END

*D_NET *108 1.0267
*CONN
*I *109:Z O
*I *67:A1 I
*CAP
1 *109:Z 0.2768
2 *108:1 0.2053
3 *108:2 0.214
4 *67:A1 0.3306
*RES
1 *109:Z *108:1 0.1569
2 *108:1 *108:2 0.258
3 *108:2 *67:A1 0.2138
*END

*D_NET *110 2.1838
*CONN
*I *57:Z O
*I *101:A I
*CAP
1 *57:Z 0.3806
2 *110:1 0.4608
3 *110:2 0.4692
4 *110:3 0.4766
5 *110:4 0.0589
6 *110:5 0.0962
7 *101:A 0.2415
*RES
1 *57:Z *110:1 0.175
2 *110:1 *110:2 0.4103
3 *110:2 *110:3 0.0845
4 *110:3 *110:4 0.1888
5 *110:4 *110:5 0.1436
6 *110:5 *101:A 0.1762
*END

*D_NET *111 0.3366
*CONN
*I *112:ZN O
*I *113:A I
*CAP
1 *112:ZN 0.0806
2 *111:1 0.2069
3 *113:A 0.0491
*RES
1 *112:ZN *111:1 0.4137
2 *111:1 *113:A 0.3046
*END

*D_NET *114 1.0479
*CONN
*I *115:Z O
*I *116:A I
*CAP
1 *115:Z 0.264
2 *114:1 0.411
3 *114:2 0.0191
4 *116:A 0.3538
*RES
1 *115:Z *114:1 0.43
2 *114:1 *114:2 0.3629
3 *114:2 *116:A 0.0787
*END

*D_NET *117 2.0675
*CONN
*I *26:Z O
*I *118:A I
*CAP
1 *26:Z 0.2971
2 *117:1 0.501
3 *117:2 0.3538
4 *117:3 0.4649
5 *117:4 0.0482
6 *117:5 0.1062
7 *118:A 0.2963
*RES
1 *26:Z *117:1 0.4911
2 *117:1 *117:2 0.2002
3 *117:2 *117:3 0.2573
4 *117:3 *117:4 0.3761
5 *117:4 *117:5 0.0616
6 *117:5 *118:A 0.4298
*END

*D_NET *119 0.5116
*CONN
*I *120:Z O
*I *121:A I
*CAP
1 *120:Z 0.2634
2 *119:1 0.0745
3 *121:A 0.1738
*RES
1 *120:Z *119:1 0.4336
2 *119:1 *121:A 0.4556
*END

*D_NET *122 1.0764
*CONN
*P *123 I
*I *124:A I
*CAP
1 *123 0.0036
2 *122:1 0.2737
3 *122:2 0.3095
4 *124:A 0.4895
*RES
1 *123 *122:1 0.4033
2 *122:1 *122:2 0.2734
3 *122:2 *124:A 0.3461
*END

*D_NET *125 1.3424
*CONN
*I *126:Z O
*I *2:A I
*CAP
1 *126:Z 0.0418
2 *125:1 0.3815
3 *125:2 0.1458
4 *125:3 0.4915
5 *125:4 0.0683
6 *2:A 0.2135
*RES
1 *126:Z *125:1 0.4484
2 *125:1 *125:2 0.1379
3 *125:2 *125:3 0.1139
4 *125:3 *125:4 0.0489
5 *125:4 *2:A 0.0861
*END

*D_NET *127 1.2401
*CONN
*I *91:ZN O
*I *128:A I
*CAP
1 *91:ZN 0.4806
2 *127:1 0.1114
3 *127:2 0.0198
4 *127:3 0.2366
5 *127:4 0.11
6 *128:A 0.2818
*RES
1 *91:ZN *127:1 0.329
2 *127:1 *127:2 0.1592
3 *127:2 *127:3 0.4236
4 *127:3 *127:4 0.3328
5 *127:4 *128:A 0.1906
*END

*D_NET *129 1.5747
*CONN
*I *130:ZN O
*I *131:A I
*CAP
1 *130:ZN 0.4347
2 *129:1 0.1394
3 *129:2 0.0096
4 *129:3 0.4963
5 *129:4 0.2377
6 *131:A 0.2571
*RES
1 *130:ZN *129:1 0.361
2 *129:1 *129:2 0.0042
3 *129:2 *129:3 0.269
4 *129:3 *129:4 0.3841
5 *129:4 *131:A 0.34
*END

*D_NET *132 1.2277
*CONN
*I *62:Z O
*I *133:A I
*CAP
1 *62:Z 0.3112
2 *132:1 0.4134
3 *132:2 0.0741
4 *133:A 0.429
*RES
1 *62:Z *132:1 0.4891
2 *132:1 *132:2 0.0621
3 *132:2 *133:A 0.2122
*END

*D_NET *134 0.7629
*CONN
*I *38:Z O
*I *135:A I
*CAP
1 *38:Z 0.1253
2 *134:1 0.2343
3 *134:2 0.1106
4 *134:3 0.0283
5 *135:A 0.2644
*RES
1 *38:Z *134:1 0.3395
2 *134:1 *134:2 0.416
3 *134:2 *134:3 0.1311
4 *134:3 *135:A 0.1702
*END

*D_NET *136 0.8144
*CONN
*I *65:Z O
*I *137:A I
*CAP
1 *65:Z 0.0383
2 *136:1 0.2177
3 *136:2 0.052
4 *136:3 0.1787
5 *137:A 0.3277
*RES
1 *65:Z *136:1 0.2308
2 *136:1 *136:2 0.1825
3 *136:2 *136:3 0.4154
4 *136:3 *137:A 0.4205
*END

*D_NET *138 0.9305
*CONN
*I *139:Z O
*I *140:A I
*CAP
1 *139:Z 0.3303
2 *138:1 0.345
3 *140:A 0.2552
*RES
1 *139:Z *138:1 0.2397
2 *138:1 *140:A 0.3943
*END

*D_NET *141 1.1705
*CONN
*I *133:Z O
*I *142:A1 I
*CAP
1 *133:Z 0.3586
2 *141:1 0.2132
3 *141:2 0.3448
4 *142:A1 0.2539
*RES
1 *133:Z *141:1 0.0169
2 *141:1 *141:2 0.291
3 *141:2 *142:A1 0.3418
*END

*D_NET *34 1.0972
*CONN
*I *143:Z O
*I *144:A I
*CAP
1 *143:Z 0.2232
2 *34:1 0.3825
3 *144:A 0.4916
*RES
1 *143:Z *34:1 0.0258
2 *34:1 *144:A 0.0722
*END

*D_NET *145 0.1761
*CONN
*I *6:Z O
*I *143:A I
*CAP
1 *6:Z 0.0274
2 *145:1 0.0758
3 *143:A 0.073
*RES
1 *6:Z *145:1 0.2996
2 *145:1 *143:A 0.15
*END

*D_NET *146 1.1459
*CONN
*I *147:Z O
*I *148:A2 I
*CAP
1 *147:Z 0.0605
2 *146:1 0.4347
3 *146:2 0.2976
4 *148:A2 0.3531
*RES
1 *147:Z *146:1 0.0316
2 *146:1 *146:2 0.1823
3 *146:2 *148:A2 0.0755
*END

*D_NET *149 1.1637
*CONN
*I *150:Z O
*I *151:A I
*CAP
1 *150:Z 0.3515
2 *149:1 0.4269
3 *149:2 0.0493
4 *149:3 0.0341
5 *151:A 0.302
*RES
1 *150:Z *149:1 0.3389
2 *149:1 *149:2 0.4
3 *149:2 *149:3 0.0188
4 *149:3 *151:A 0.4709
*END

*D_NET *152 0.8262
*CONN
*I *153:Z O
*I *154:A I
*CAP
1 *153:Z 0.0122
2 *152:1 0.0936
3 *152:2 0.3051
4 *152:3 0.1197
5 *154:A 0.2956
*RES
1 *153:Z *152:1 0.221
2 *152:1 *152:2 0.097
3 *152:2 *152:3 0.2798
4 *152:3 *154:A 0.315
*END

*D_NET *155 1.2664
*CONN
*I *76:Z O
*I *156:A I
*CAP
1 *76:Z 0.2108
2 *155:1 0.0161
3 *155:2 0.2047
4 *155:3 0.3729
5 *155:4 0.061
6 *156:A 0.401
*RES
1 *76:Z *155:1 0.291
2 *155:1 *155:2 0.3768
3 *155:2 *155:3 0.3083
4 *155:3 *155:4 0.125
5 *155:4 *156:A 0.3526
*END

*D_NET *157 1.6292
*CONN
*I *158:Z O
*I *78:A I
*CAP
1 *158:Z 0.3144
2 *157:1 0.082
3 *157:2 0.2174
4 *157:3 0.3638
5 *157:4 0.4097
6 *78:A 0.2418
*RES
1 *158:Z *157:1 0.408
2 *157:1 *157:2 0.3118
3 *157:2 *157:3 0.4981
4 *157:3 *157:4 0.3134
5 *157:4 *78:A 0.4059
*END

*D_NET *159 0.9494
*CONN
*I *124:Z O
*I *150:A I
*CAP
1 *124:Z 0.091
2 *159:1 0.3093
3 *159:2 0.3342
4 *150:A 0.215
*RES
1 *124:Z *159:1 0.0109
2 *159:1 *159:2 0.183
3 *159:2 *150:A 0.2298
*END

*D_NET *160 0.1587
*CONN
*I *161:Z O
*I *91:A2 I
*CAP
1 *161:Z 0.0044
2 *160:1 0.0476
3 *160:2 0.0521
4 *91:A2 0.0546
*RES
1 *161:Z *160:1 0.0043
2 *160:1 *160:2 0.2737
3 *160:2 *91:A2 0.4724
*END

*D_NET *162 1.0994
*CONN
*I *163:Z O
*I *42:A I
*CAP
1 *163:Z 0.2426
2 *162:1 0.2784
3 *162:2 0.2008
4 *42:A 0.3776
*RES
1 *163:Z *162:1 0.2937
2 *162:1 *162:2 0.0093
3 *162:2 *42:A 0.2822
*END

*D_NET *164 1.0927
*CONN
*I *165:Z O
*I *61:A I
*CAP
1 *165:Z 0.0309
2 *164:1 0.3809
3 *164:2 0.3567
4 *61:A 0.3242
*RES
1 *165:Z *164:1 0.2336
2 *164:1 *164:2 0.3863
3 *164:2 *61:A 0.2365
*END

*D_NET *166 1.1858
*CONN
*I *99:Z O
*I *8:A I
*CAP
1 *99:Z 0.3572
2 *166:1 0.2185
3 *166:2 0.2266
4 *166:3 0.2538
5 *8:A 0.1297
*RES
1 *99:Z *166:1 0.4791
2 *166:1 *166:2 0.2417
3 *166:2 *166:3 0.2444
4 *166:3 *8:A 0.4262
*END

*D_NET *123 1.0967
*CONN
*I *151:Z O
*I *167:A1 I
*CAP
1 *151:Z 0.3015
2 *123:1 0.3035
3 *123:2 0.4053
4 *167:A1 0.0863
*RES
1 *151:Z *123:1 0.2362
2 *123:1 *123:2 0.1365
3 *123:2 *167:A1 0.0277
*END

*D_NET *168 0.8486
*CONN
*I *169:Z O
*I *142:A2 I
*CAP
1 *169:Z 0.2912
2 *168:1 0.3711
3 *168:2 0.0512
4 *142:A2 0.1351
*RES
1 *169:Z *168:1 0.0984
2 *168:1 *168:2 0.0368
3 *168:2 *142:A2 0.4376
*END

*D_NET *170 3.421
*CONN
*I *154:Z O
*I *130:A I
*I *44:D I
*I *148:A1 I
*CAP
1 *154:Z 0.1283
2 *170:1 0.3234
3 *170:2 0.461
4 *130:A 0.4832
5 *170:3 0.4556
6 *170:4 0.1835
7 *170:5 0.002
8 *170:6 0.2614
9 *44:D 0.301
10 *170:7 0.3178
11 *170:8 0.2541
12 *148:A1 0.2497
*RES
1 *154:Z *170:1 0.2776
2 *170:1 *170:2 0.3781
3 *170:2 *130:A 0.3766
4 *170:1 *170:3 0.2164
5 *170:3 *170:4 0.4372
6 *170:4 *170:5 0.1158
7 *170:5 *170:6 0.1153
8 *170:6 *44:D 0.381
9 *170:1 *170:7 0.4625
10 *170:7 *170:8 0.2343
11 *170:8 *148:A1 0.0981
*END

*D_NET *171 1.0934
*CONN
*I *89:ZN O
*I *172:A I
*CAP
1 *89:ZN 0.2382
2 *171:1 0.0945
3 *171:2 0.2326
4 *171:3 0.0121
5 *171:4 0.2674
6 *171:5 0.2072
7 *172:A 0.0414
*RES
1 *89:ZN *171:1 0.2455
2 *171:1 *171:2 0.197
3 *171:2 *171:3 0.0138
4 *171:3 *171:4 0.4527
5 *171:4 *171:5 0.3131
6 *171:5 *172:A 0.4392
*END

*D_NET *173 1.6917
*CONN
*P *160 I
*I *174:A I
*CAP
1 *160 0.0368
2 *173:1 0.2266
3 *173:2 0.4199
4 *173:3 0.3736
5 *173:4 0.3306
6 *174:A 0.3042
*RES
1 *160 *173:1 0.1317
2 *173:1 *173:2 0.1481
3 *173:2 *173:3 0.2485
4 *173:3 *173:4 0.2201
5 *173:4 *174:A 0.2966
*END

*D_NET *175 0.5227
*CONN
*I *107:Z O
*I *147:A I
*CAP
1 *107:Z 0.0758
2 *175:1 0.3812
3 *147:A 0.0656
*RES
1 *107:Z *175:1 0.155
2 *175:1 *147:A 0.0047
*END

*D_NET *176 1.6139
*CONN
*I *140:Z O
*I *59:A I
*CAP
1 *140:Z 0.2138
2 *176:1 0.2523
3 *176:2 0.0497
4 *176:3 0.4938
5 *176:4 0.3913
6 *59:A 0.2131
*RES
1 *140:Z *176:1 0.3201
2 *176:1 *176:2 0.032
3 *176:2 *176:3 0.2786
4 *176:3 *176:4 0.3378
5 *176:4 *59:A 0.4364
*END

*D_NET *177 1.5961
*CONN
*I *167:ZN O
*I *95:A I
*CAP
1 *167:ZN 0.4527
2 *177:1 0.3641
3 *177:2 0.174
4 *177:3 0.2701
5 *95:A 0.3351
*RES
1 *167:ZN *177:1 0.4105
2 *177:1 *177:2 0.3004
3 *177:2 *177:3 0.3665
4 *177:3 *95:A 0.1341
*END

*D_NET *178 0.7589
*CONN
*I *179:ZN O
*I *106:A I
*CAP
1 *179:ZN 0.1706
2 *178:1 0.0751
3 *178:2 0.1227
4 *178:3 0.0294
5 *178:4 0.0059
6 *106:A 0.3552
*RES
1 *179:ZN *178:1 0.3839
2 *178:1 *178:2 0.184
3 *178:2 *178:3 0.401
4 *178:3 *178:4 0.3573
5 *178:4 *106:A 0.4559
*END

*D_NET *180 1.8802
*CONN
*I *118:Z O
*I *181:A I
*CAP
1 *118:Z 0.1715
2 *180:1 0.3594
3 *180:2 0.4902
4 *180:3 0.4716
5 *180:4 0.2112
6 *181:A 0.1762
*RES
1 *118:Z *180:1 0.1166
2 *180:1 *180:2 0.166
3 *180:2 *180:3 0.2177
4 *180:3 *180:4 0.2908
5 *180:4 *181:A 0.3318
*END

*D_NET *182 1.3234
*CONN
*I *47:Z O
*I *183:A I
*CAP
1 *47:Z 0.408
2 *182:1 0.1932
3 *182:2 0.0675
4 *182:3 0.0053
5 *182:4 0.1459
6 *182:5 0.0437
7 *183:A 0.4598
*RES
1 *47:Z *182:1 0.3838
2 *182:1 *182:2 0.2033
3 *182:2 *182:3 0.3263
4 *182:3 *182:4 0.4574
5 *182:4 *182:5 0.4683
6 *182:5 *183:A 0.1543
*END

*D_NET *184 1.8258
*CONN
*I *113:Z O
*I *120:A I
*CAP
1 *113:Z 0.1669
2 *184:1 0.4518
3 *184:2 0.057
4 *184:3 0.4909
5 *184:4 0.0572
6 *184:5 0.5008
7 *120:A 0.1013
*RES
1 *113:Z *184:1 0.2457
2 *184:1 *184:2 0.421
3 *184:2 *184:3 0.2594
4 *184:3 *184:4 0.3565
5 *184:4 *184:5 0.4074
6 *184:5 *120:A 0.4309
*END

*D_NET *185 1.6029
*CONN
*I *186:Z O
*I *187:A I
*CAP
1 *186:Z 0.2931
2 *185:1 0.2246
3 *185:2 0.332
4 *185:3 0.387
5 *187:A 0.3663
*RES
1 *186:Z *185:1 0.1512
2 *185:1 *185:2 0.1368
3 *185:2 *185:3 0.4493
4 *185:3 *187:A 0.4663
*END

*D_NET *188 1.5003
*CONN
*I *3:Z O
*I *189:A I
*CAP
1 *3:Z 0.1873
2 *188:1 0.3589
3 *188:2 0.4697
4 *189:A 0.4844
*RES
1 *3:Z *188:1 0.0401
2 *188:1 *188:2 0.2861
3 *188:2 *189:A 0.1883
*END

*D_NET *190 1.2973
*CONN
*I *131:Z O
*I *83:A I
*CAP
1 *131:Z 0.0604
2 *190:1 0.2921
3 *190:2 0.4162
4 *190:3 0.1285
5 *190:4 0.0491
6 *83:A 0.3511
*RES
1 *131:Z *190:1 0.2111
2 *190:1 *190:2 0.301
3 *190:2 *190:3 0.1515
4 *190:3 *190:4 0.0492
5 *190:4 *83:A 0.2707
*END

*D_NET *191 0.7974
*CONN
*I *54:Z O
*I *81:A I
*CAP
1 *54:Z 0.2365
2 *191:1 0.208
3 *81:A 0.3529
*RES
1 *54:Z *191:1 0.4886
2 *191:1 *81:A 0.3648
*END

*D_NET *192 1.5829
*CONN
*I *148:ZN O
*I *56:A I
*CAP
1 *148:ZN 0.3187
2 *192:1 0.0224
3 *192:2 0.4026
4 *192:3 0.2784
5 *192:4 0.1803
6 *192:5 0.0882
7 *56:A 0.2924
*RES
1 *148:ZN *192:1 0.478
2 *192:1 *192:2 0.351
3 *192:2 *192:3 0.1182
4 *192:3 *192:4 0.2614
5 *192:4 *192:5 0.153
6 *192:5 *56:A 0.2582
*END

*D_NET *193 1.1301
*CONN
*I *194:Z O
*I *126:A I
*CAP
1 *194:Z 0.0762
2 *193:1 0.3922
3 *193:2 0.395
4 *126:A 0.2666
*RES
1 *194:Z *193:1 0.4255
2 *193:1 *193:2 0.4671
3 *193:2 *126:A 0.2972
*END

*D_NET *195 2.5412
*CONN
*I *196:Z O
*I *112:A1 I
*I *197:A1 I
*CAP
1 *196:Z 0.488
2 *195:1 0.3167
3 *195:2 0.3376
4 *195:3 0.1073
5 *195:4 0.3579
6 *195:5 0.13
7 *197:A1 0.3795
8 *195:6 0.0541
9 *112:A1 0.37
*RES
1 *196:Z *195:1 0.2362
2 *195:1 *195:2 0.1908
3 *195:2 *195:3 0.1996
4 *195:3 *195:4 0.3123
5 *195:4 *195:5 0.1251
6 *195:5 *197:A1 0.0048
7 *195:4 *195:6 0.326
8 *195:6 *112:A1 0.3466
*END

*D_NET *198 0.992
*CONN
*I *189:Z O
*I *43:D I
*CAP
1 *189:Z 0.4038
2 *198:1 0.0063
3 *198:2 0.4904
4 *43:D 0.0915
*RES
1 *189:Z *198:1 0.4619
2 *198:1 *198:2 0.1065
3 *198:2 *43:D 0.199
*END

*D_NET *199 2.178
*CONN
*I *200:Z O
*I *23:A2 I
*I *167:A2 I
*CAP
1 *200:Z 0.069
2 *199:1 0.2934
3 *199:2 0.0661
4 *199:3 0.0281
5 *167:A2 0.1011
6 *199:4 0.4045
7 *199:5 0.4267
8 *199:6 0.4596
9 *23:A2 0.3295
*RES
1 *200:Z *199:1 0.2539
2 *199:1 *199:2 0.0765
3 *199:2 *199:3 0.198
4 *199:3 *167:A2 0.3226
5 *199:1 *199:4 0.4724
6 *199:4 *199:5 0.4631
7 *199:5 *199:6 0.0407
8 *199:6 *23:A2 0.413
*END

*D_NET *201 0.9034
*CONN
*I *142:ZN O
*I *139:A I
*CAP
1 *142:ZN 0.0714
2 *201:1 0.2588
3 *201:2 0.0339
4 *201:3 0.0519
5 *139:A 0.4874
*RES
1 *142:ZN *201:1 0.0374
2 *201:1 *201:2 0.2489
3 *201:2 *201:3 0.2584
4 *201:3 *139:A 0.0346
*END

*D_NET *202 0.9383
*CONN
*I *183:Z O
*I *203:A I
*CAP
1 *183:Z 0.0645
2 *202:1 0.4099
3 *202:2 0.154
4 *202:3 0.0325
5 *202:4 0.0924
6 *203:A 0.185
*RES
1 *183:Z *202:1 0.1516
2 *202:1 *202:2 0.2746
3 *202:2 *202:3 0.4228
4 *202:3 *202:4 0.1417
5 *202:4 *203:A 0.3754
*END

*D_NET *204 0.9794
*CONN
*I *205:Z O
*I *20:A I
*CAP
1 *205:Z 0.0068
2 *204:1 0.422
3 *204:2 0.4926
4 *20:A 0.058
*RES
1 *205:Z *204:1 0.381
2 *204:1 *204:2 0.2195
3 *204:2 *20:A 0.2042
*END

*D_NET *206 1.5343
*CONN
*I *44:QN O
*I *207:A I
*CAP
1 *44:QN 0.2656
2 *206:1 0.1336
3 *206:2 0.4042
4 *206:3 0.0451
5 *206:4 0.2391
6 *206:5 0.0321
7 *207:A 0.4146
*RES
1 *44:QN *206:1 0.0857
2 *206:1 *206:2 0.2654
3 *206:2 *206:3 0.2245
4 *206:3 *206:4 0.4797
5 *206:4 *206:5 0.0551
6 *206:5 *207:A 0.1877
*END

*D_NET *208 0.95
*CONN
*I *144:ZN O
*I *158:A I
*CAP
1 *144:ZN 0.4235
2 *208:1 0.2143
3 *208:2 0.0701
4 *158:A 0.2421
*RES
1 *144:ZN *208:1 0.4634
2 *208:1 *208:2 0.2497
3 *208:2 *158:A 0.2766
*END

*D_NET *209 1.5648
*CONN
*I *79:Z O
*I *165:A I
*CAP
1 *79:Z 0.2353
2 *209:1 0.0722
3 *209:2 0.3539
4 *209:3 0.3446
5 *209:4 0.0192
6 *209:5 0.1341
7 *165:A 0.4054
*RES
1 *79:Z *209:1 0.3681
2 *209:1 *209:2 0.4419
3 *209:2 *209:3 0.1561
4 *209:3 *209:4 0.1347
5 *209:4 *209:5 0.0224
6 *209:5 *165:A 0.3933
*END

*D_NET *210 1.1138
*CONN
*I *43:QN O
*I *186:A I
*CAP
1 *43:QN 0.4154
2 *210:1 0.1713
3 *210:2 0.2153
4 *186:A 0.3119
*RES
1 *43:QN *210:1 0.4918
2 *210:1 *210:2 0.3583
3 *210:2 *186:A 0.0251
*END

*D_NET *211 1.8945
*CONN
*I *96:Z O
*I *194:A I
*CAP
1 *96:Z 0.2242
2 *211:1 0.4589
3 *211:2 0.0098
4 *211:3 0.3264
5 *211:4 0.2846
6 *211:5 0.4721
7 *194:A 0.1185
*RES
1 *96:Z *211:1 0.4585
2 *211:1 *211:2 0.3703
3 *211:2 *211:3 0.0365
4 *211:3 *211:4 0.4409
5 *211:4 *211:5 0.4335
6 *211:5 *194:A 0.3158
*END

*D_NET *212 1.4639
*CONN
*P *87 I
*I *213:A I
*CAP
1 *87 0.4798
2 *212:1 0.1778
3 *212:2 0.3155
4 *213:A 0.4909
*RES
1 *87 *212:1 0.2285
2 *212:1 *212:2 0.2293
3 *212:2 *213:A 0.4514
*END

*D_NET *214 1.0327
*CONN
*I *70:Z O
*I *109:A I
*CAP
1 *70:Z 0.3442
2 *214:1 0.2112
3 *214:2 0.3238
4 *109:A 0.1536
*RES
1 *70:Z *214:1 0.2744
2 *214:1 *214:2 0.3973
3 *214:2 *109:A 0.0682
*END

*D_NET *215 0.948
*CONN
*I *174:Z O
*I *50:A I
*CAP
1 *174:Z 0.2235
2 *215:1 0.2665
3 *50:A 0.458
*RES
1 *174:Z *215:1 0.4392
2 *215:1 *50:A 0.466
*END

*D_NET *216 0.7474
*CONN
*I *156:Z O
*I *40:A I
*CAP
1 *156:Z 0.2711
2 *216:1 0.113
3 *216:2 0.0719
4 *40:A 0.2913
*RES
1 *156:Z *216:1 0.3837
2 *216:1 *216:2 0.4308
3 *216:2 *40:A 0.4593
*END

*D_NET *217 1.7533
*CONN
*I *218:Z O
*I *93:A I
*CAP
1 *218:Z 0.1666
2 *217:1 0.2
3 *217:2 0.433
4 *217:3 0.3792
5 *217:4 0.3945
6 *217:5 0.1168
7 *93:A 0.0632
*RES
1 *218:Z *217:1 0.3389
2 *217:1 *217:2 0.2267
3 *217:2 *217:3 0.0022
4 *217:3 *217:4 0.3986
5 *217:4 *217:5 0.0342
6 *217:5 *93:A 0.1492
*END

*D_NET *219 1.6661
*CONN
*I *213:Z O
*I *220:A I
*CAP
1 *213:Z 0.2299
2 *219:1 0.0789
3 *219:2 0.1418
4 *219:3 0.2162
5 *219:4 0.348
6 *219:5 0.3423
7 *220:A 0.3091
*RES
1 *213:Z *219:1 0.3077
2 *219:1 *219:2 0.0259
3 *219:2 *219:3 0.3818
4 *219:3 *219:4 0.2326
5 *219:4 *219:5 0.3632
6 *219:5 *220:A 0.2277
*END

*D_NET *221 0.7743
*CONN
*I *84:Z O
*P *221 O
*CAP
1 *84:Z 0.3067
2 *221:1 0.0694
3 *221:2 0.1731
4 *221:3 0.034
5 *221 0.191
*RES
1 *84:Z *221:1 0.0233
2 *221:1 *221:2 0.1519
3 *221:2 *221:3 0.4158
4 *221:3 *221 0.0326
*END

*D_NET *222 0.7717
*CONN
*I *116:Z O
*I *205:A I
*CAP
1 *116:Z 0.2469
2 *222:1 0.1398
3 *205:A 0.385
*RES
1 *116:Z *222:1 0.2235
2 *222:1 *205:A 0.253
*END

*D_NET *223 1.2256
*CONN
*I *181:ZN O
*I *53:A I
*CAP
1 *181:ZN 0.1085
2 *223:1 0.0178
3 *223:2 0.1655
4 *223:3 0.323
5 *223:4 0.304
6 *53:A 0.3068
*RES
1 *181:ZN *223:1 0.1313
2 *223:1 *223:2 0.049
3 *223:2 *223:3 0.149
4 *223:3 *223:4 0.4082
5 *223:4 *53:A 0.0586
*END

*D_NET *224 2.0375
*CONN
*I *225:Z O
*I *22:A I
*CAP
1 *225:Z 0.4766
2 *224:1 0.1239
3 *224:2 0.3524
4 *224:3 0.4065
5 *224:4 0.3838
6 *224:5 0.2328
7 *22:A 0.0616
*RES
1 *225:Z *224:1 0.367
2 *224:1 *224:2 0.3852
3 *224:2 *224:3 0.1467
4 *224:3 *224:4 0.2409
5 *224:4 *224:5 0.4071
6 *224:5 *22:A 0.2078
*END

*D_NET *226 0.6644
*CONN
*I *172:Z O
*I *163:A I
*CAP
1 *172:Z 0.2212
2 *226:1 0.1904
3 *163:A 0.2527
*RES
1 *172:Z *226:1 0.0491
2 *226:1 *163:A 0.0298
*END

*D_NET *227 0.7771
*CONN
*I *86:Z O
*I *98:A I
*CAP
1 *86:Z 0.343
2 *227:1 0.2799
3 *98:A 0.1542
*RES
1 *86:Z *227:1 0.1497
2 *227:1 *98:A 0.2415
*END

*D_NET *228 0.8908
*CONN
*I *229:Z O
*I *225:A I
*CAP
1 *229:Z 0.298
2 *228:1 0.412
3 *228:2 0.1627
4 *225:A 0.0181
*RES
1 *229:Z *228:1 0.3748
2 *228:1 *228:2 0.3179
3 *228:2 *225:A 0.1204
*END

*D_NET *230 0.7131
*CONN
*I *207:Z O
*I *231:A I
*CAP
1 *207:Z 0.1679
2 *230:1 0.3745
3 *231:A 0.1708
*RES
1 *207:Z *230:1 0.0756
2 *230:1 *231:A 0.2634
*END

*D_NET *232 1.689
*CONN
*I *197:ZN O
*I *229:A I
*CAP
1 *197:ZN 0.4356