*SPEF "IEEE 1481-1998"
*DESIGN "changes"
*DATE "Tue Dec 02 20:02:01 2014"
*VENDOR "TAU 2015 Contest"
*PROGRAM "Benchmark Parasitic Generator"
*VERSION "0.0"
*DESIGN_FLOW "NETLIST_TYPE_VERILOG"
*DIVIDER /
*DELIMITER :
*BUS_DELIMITER []
*T_UNIT 1 PS
*C_UNIT 1 FF
*R_UNIT 1 KOHM
*L_UNIT 1 UH

*NAME_MAP
*17 inst_4
*6 TAUGATE_47
*5 TAUGATE_90
*13 TAUNET_98
*3 TAUGATE_94
*1 TAUNET_94
*14 TAUGATE_72
*2 TAUGATE_96
*4 TAUNET_47
*16 inst_3
*7 TAUNET_83
*10 TAUNET_43
*8 TAUGATE_71
*9 TAUGATE_83
*11 TAUGATE_84
*12 TAUGATE_43
*15 TAUGATE_98


*D_NET *1 1.7439
*CONN
*I *2:Z O
*I *3:A I
*CAP
1 *2:Z 0.2611
2 *1:1 0.4098
3 *1:2 0.5009
4 *1:3 0.2843
5 *3:A 0.2878
*RES
1 *2:Z *1:1 0.1659
2 *1:1 *1:2 0.2742
3 *1:2 *1:3 0.3494
4 *1:3 *3:A 0.1485
*END

*D_NET *4 1.376
*CONN
*I *5:Z O
*I *6:A I
*CAP
1 *5:Z 0.211
2 *4:1 0.307
3 *4:2 0.3583
4 *4:3 0.1395
5 *4:4 0.0646
6 *4:5 0.0794
7 *6:A 0.2161
*RES
1 *5:Z *4:1 0.1614
2 *4:1 *4:2 0.3312
3 *4:2 *4:3 0.3755
4 *4:3 *4:4 0.4644
5 *4:4 *4:5 0.4559
6 *4:5 *6:A 0.405
*END

*D_NET *7 0.4849
*CONN
*I *8:Z O
*I *9:A I
*CAP
1 *8:Z 0.167
2 *7:1 0.244
3 *7:2 0.0332
4 *9:A 0.0406
*RES
1 *8:Z *7:1 0.2732
2 *7:1 *7:2 0.0073
3 *7:2 *9:A 0.1308
*END

*D_NET *10 1.8161
*CONN
*I *11:Z O
*I *12:A I
*CAP
1 *11:Z 0.2909
2 *10:1 0.074
3 *10:2 0.4871
4 *10:3 0.4951
5 *10:4 0.4125
6 *12:A 0.0565
*RES
1 *11:Z *10:1 0.1285
2 *10:1 *10:2 0.0292
3 *10:2 *10:3 0.2926
4 *10:3 *10:4 0.4507
5 *10:4 *12:A 0.3356
*END

*D_NET *13 4.2828
*CONN
*I *14:Z O
*I *15:A I
*I *16:A2 I
*I *17:A2 I
*CAP
1 *14:Z 0.3845
2 *13:1 0.3056
3 *13:2 0.3464
4 *13:3 0.0305
5 *13:4 0.2383
6 *13:5 0.402
7 *17:A2 0.2529
8 *13:6 0.2236
9 *16:A2 0.1922
10 *13:7 0.468
11 *13:8 0.2976
12 *13:9 0.2331
13 *13:10 0.2927
14 *13:11 0.3943
15 *15:A 0.2211
*RES
1 *14:Z *13:1 0.2665
2 *13:1 *13:2 0.4354
3 *13:2 *13:3 0.1977
4 *13:3 *13:4 0.0788
5 *13:4 *13:5 0.3276
6 *13:5 *17:A2 0.3833
7 *13:4 *13:6 0.2805
8 *13:6 *16:A2 0.1322
9 *13:3 *13:7 0.1955
10 *13:7 *13:8 0.1868
11 *13:8 *13:9 0.4889
12 *13:9 *13:10 0.0703
13 *13:10 *13:11 0.3298
14 *13:11 *15:A 0.4131
*END

