*SPEF "IEEE 1481-1998"
*DESIGN "changes"
*DATE "Tue Dec 02 20:01:59 2014"
*VENDOR "TAU 2015 Contest"
*PROGRAM "Benchmark Parasitic Generator"
*VERSION "0.0"
*DESIGN_FLOW "NETLIST_TYPE_VERILOG"
*DIVIDER /
*DELIMITER :
*BUS_DELIMITER []
*T_UNIT 1 PS
*C_UNIT 1 FF
*R_UNIT 1 KOHM
*L_UNIT 1 UH

*NAME_MAP
*12 TAUNET_1
*11 inst_1
*10 TAUNET_3
*9 TAUGATE_2
*7 TAUNET_2
*2 G3
*1 TAUNET_4
*6 inst_10
*3 TAUGATE_4
*8 inst_3
*4 G1
*13 TAUGATE_1
*5 TAUGATE_3


*D_NET *1 1.7439
*CONN
*P *2 I
*I *3:A I
*CAP
1 *2 0.2611
2 *1:1 0.4098
3 *1:2 0.5009
4 *1:3 0.2843
5 *3:A 0.2878
*RES
1 *2 *1:1 0.1659
2 *1:1 *1:2 0.2742
3 *1:2 *1:3 0.3494
4 *1:3 *3:A 0.1485
*END

*D_NET *4 1.376
*CONN
*I *5:Z O
*I *6:A I
*CAP
1 *5:Z 0.211
2 *4:1 0.307
3 *4:2 0.3583
4 *4:3 0.1395
5 *4:4 0.0646
6 *4:5 0.0794
7 *6:A 0.2161
*RES
1 *5:Z *4:1 0.1614
2 *4:1 *4:2 0.3312
3 *4:2 *4:3 0.3755
4 *4:3 *4:4 0.4644
5 *4:4 *4:5 0.4559
6 *4:5 *6:A 0.405
*END

*D_NET *7 0.4849
*CONN
*I *8:ZN O
*I *9:A I
*CAP
1 *8:ZN 0.167
2 *7:1 0.244
3 *7:2 0.0332
4 *9:A 0.0406
*RES
1 *8:ZN *7:1 0.2732
2 *7:1 *7:2 0.0073
3 *7:2 *9:A 0.1308
*END

*D_NET *10 1.8161
*CONN
*P *4 I
*I *5:A I
*CAP
1 *4 0.2909
2 *10:1 0.074
3 *10:2 0.4871
4 *10:3 0.4951
5 *10:4 0.4125
6 *5:A 0.0565
*RES
1 *4 *10:1 0.1285
2 *10:1 *10:2 0.0292
3 *10:2 *10:3 0.2926
4 *10:3 *10:4 0.4507
5 *10:4 *5:A 0.3356
*END

*D_NET *2 1.9602
*CONN
*I *3:Z O
*I *11:A2 I
*CAP
1 *3:Z 0.3845
2 *2:1 0.3056
3 *2:2 0.3464
4 *2:3 0.0305
5 *2:4 0.2383
6 *2:5 0.402
7 *11:A2 0.2529
*RES
1 *3:Z *2:1 0.2665
2 *2:1 *2:2 0.4354
3 *2:2 *2:3 0.1977
4 *2:3 *2:4 0.0788
5 *2:4 *2:5 0.3276
6 *2:5 *11:A2 0.3833
*END

*D_NET *12 0.867
*CONN
*I *9:Z O
*I *13:A I
*CAP
1 *9:Z 0.0716
2 *12:1 0.1922
3 *12:2 0.2805
4 *12:3 0.1322
5 *13:A 0.1905
*RES
1 *9:Z *12:1 0.4017
2 *12:1 *12:2 0.468
3 *12:2 *12:3 0.2976
4 *12:3 *13:A 0.2331
*END

