*SPEF "IEEE 1481-1998"
*DESIGN "changes"
*DATE "Tue Dec 02 20:02:11 2014"
*VENDOR "TAU 2015 Contest"
*PROGRAM "Benchmark Parasitic Generator"
*VERSION "0.0"
*DESIGN_FLOW "NETLIST_TYPE_VERILOG"
*DIVIDER /
*DELIMITER :
*BUS_DELIMITER []
*T_UNIT 1 PS
*C_UNIT 1 FF
*R_UNIT 1 KOHM
*L_UNIT 1 UH

*NAME_MAP
*30 G1
*28 net_6
*26 G2
*24 net_8
*29 net_4
*22 net_9
*20 net_10
*21 inst_5
*17 G3
*19 net_14
*6 net_15
*10 inst_4
*18 inst_1
*3 inst_0
*1 net_11
*9 inst_3
*16 net_2
*27 net_3
*25 net_13
*4 net_5
*2 inst_2
*7 G0
*8 inst_6
*11 net_12
*14 inst_15
*5 inst_16
*12 reset_net
*23 inst_7
*13 inst_14
*15 G17


*D_NET *1 1.7439
*CONN
*I *2:ZN O
*I *3:A1 I
*CAP
1 *2:ZN 0.2611
2 *1:1 0.4098
3 *1:2 0.5009
4 *1:3 0.2843
5 *3:A1 0.2878
*RES
1 *2:ZN *1:1 0.1659
2 *1:1 *1:2 0.2742
3 *1:2 *1:3 0.3494
4 *1:3 *3:A1 0.1485
*END

*D_NET *4 1.376
*CONN
*I *5:QN O
*I *3:A2 I
*CAP
1 *5:QN 0.211
2 *4:1 0.307
3 *4:2 0.3583
4 *4:3 0.1395
5 *4:4 0.0646
6 *4:5 0.0794
7 *3:A2 0.2161
*RES
1 *5:QN *4:1 0.1614
2 *4:1 *4:2 0.3312
3 *4:2 *4:3 0.3755
4 *4:3 *4:4 0.4644
5 *4:4 *4:5 0.4559
6 *4:5 *3:A2 0.405
*END

*D_NET *6 4.1543
*CONN
*P *7 I
*I *8:A2 I
*I *9:A2 I
*I *10:A2 I
*CAP
1 *7 0.167
2 *6:1 0.244
3 *6:2 0.0332
4 *8:A2 0.0406
5 *6:3 0.3706
6 *6:4 0.074
7 *6:5 0.4871
8 *9:A2 0.4951
9 *6:6 0.3356
10 *6:7 0.3995
11 *6:8 0.3845
12 *6:9 0.4708
13 *6:10 0.3056
14 *10:A2 0.3464
*RES
1 *7 *6:1 0.2732
2 *6:1 *6:2 0.0073
3 *6:2 *8:A2 0.1308
4 *6:1 *6:3 0.4125
5 *6:3 *6:4 0.0565
6 *6:4 *6:5 0.1285
7 *6:5 *9:A2 0.0292
8 *6:3 *6:6 0.0305
9 *6:6 *6:7 0.2383
10 *6:7 *6:8 0.402
11 *6:8 *6:9 0.2529
12 *6:9 *6:10 0.2665
13 *6:10 *10:A2 0.4354
*END

*D_NET *11 3.7752
*CONN
*P *12 I
*I *13:RN I
*I *14:RN I
*I *5:RN I
*CAP
1 *12 0.0788
2 *11:1 0.3833
3 *11:2 0.3292
4 *11:3 0.0716
5 *11:4 0.2236
6 *14:RN 0.1922
7 *11:5 0.2927
8 *11:6 0.3943
9 *11:7 0.2211
10 *13:RN 0.1955
11 *11:8 0.2621
12 *11:9 0.4792
13 *11:10 0.1808
14 *11:11 0.0717
15 *5:RN 0.399
*RES
1 *12 *11:1 0.2805
2 *11:1 *11:2 0.1322
3 *11:2 *11:3 0.1905
4 *11:3 *11:4 0.4017
5 *11:4 *14:RN 0.468
6 *11:3 *11:5 0.1868
7 *11:5 *11:6 0.4889
8 *11:6 *11:7 0.0703
9 *11:7 *13:RN 0.3298
10 *11:7 *11:8 0.4035
11 *11:8 *11:9 0.0219
12 *11:9 *11:10 0.083
13 *11:10 *11:11 0.4539
14 *11:11 *5:RN 0.125
*END

*D_NET *15 5.4715
*CONN
*I *3:ZN O
*P *15 O
*I *14:D I
*I *8:A1 I
*CAP
1 *3:ZN 0.4976
2 *15:1 0.278
3 *15:2 0.2022
4 *15:3 0.1593
5 *15:4 0.4382
6 *14:D 0.3498
7 *15:5 0.3789
8 *15:6 0.3545
9 *15:7 0.1033
10 *15:8 0.4316
11 *15:9 0.1782
12 *15 0.4734
13 *15:10 0.2434
14 *15:11 0.3726
15 *15:12 0.298
16 *15:13 0.2454
17 *8:A1 0.467
*RES
1 *3:ZN *15:1 0.4055
2 *15:1 *15:2 0.4519
3 *15:2 *15:3 0.4658
4 *15:3 *15:4 0.369
5 *15:4 *14:D 0.4019
6 *15:2 *15:5 0.0376
7 *15:5 *15:6 0.0972
8 *15:6 *15:7 0.3594
9 *15:7 *15:8 0.0525
10 *15:8 *15:9 0.3248
11 *15:9 *15 0.2597
12 *15:3 *15:10 0.1921
13 *15:10 *15:11 0.1376
14 *15:11 *15:12 0.4443
15 *15:12 *15:13 0.1288
16 *15:13 *8:A1 0.3022
*END

*D_NET *16 2.8424
*CONN
*I *14:QN O
*I *9:A1 I
*I *10:A1 I
*CAP
1 *14:QN 0.0668
2 *16:1 0.4131
3 *16:2 0.4004
4 *16:3 0.4814
5 *16:4 0.1341
6 *9:A1 0.3915
7 *16:5 0.3147
8 *16:6 0.2761
9 *10:A1 0.3643
*RES
1 *14:QN *16:1 0.0282
2 *16:1 *16:2 0.3089
3 *16:2 *16:3 0.0253
4 *16:3 *16:4 0.3105
5 *16:4 *9:A1 0.1881
6 *16:2 *16:5 0.2288
7 *16:5 *16:6 0.0666
8 *16:6 *10:A1 0.3854
*END

*D_NET *17 1.0519
*CONN
*P *17 I
*I *18:A2 I
*CAP
1 *17 0.3774
2 *17:1 0.1525
3 *17:2 0.0518
4 *17:3 0.2548
5 *18:A2 0.2154
*RES
1 *17 *17:1 0.4921
2 *17:1 *17:2 0.1648
3 *17:2 *17:3 0.1855
4 *17:3 *18:A2 0.0112
*END

*D_NET *19 1.1059
*CONN
*I *9:ZN O
*I *18:A1 I
*CAP
1 *9:ZN 0.1128
2 *19:1 0.0917
3 *19:2 0.423
4 *19:3 0.1494
5 *18:A1 0.329
*RES
1 *9:ZN *19:1 0.162
2 *19:1 *19:2 0.0029
3 *19:2 *19:3 0.2883
4 *19:3 *18:A1 0.1903
*END

*D_NET *20 0.6766
*CONN
*I *21:ZN O
*I *13:D I
*CAP
1 *21:ZN 0.3484
2 *20:1 0.1392
3 *13:D 0.1891
*RES
1 *21:ZN *20:1 0.0464
2 *20:1 *13:D 0.0364
*END

*D_NET *22 1.0529
*CONN
*I *23:ZN O
*I *2:A2 I
*I *21:A2 I
*CAP
1 *23:ZN 0.4104
2 *22:1 0.051
3 *2:A2 0.16
4 *22:2 0.058
5 *21:A2 0.3736
*RES
1 *23:ZN *22:1 0.1748
2 *22:1 *2:A2 0.4787
3 *22:1 *22:2 0.0395
4 *22:2 *21:A2 0.3644
*END

*D_NET *24 2.3814
*CONN
*I *18:ZN O
*I *3:A3 I
*CAP
1 *18:ZN 0.1977
2 *24:1 0.3877
3 *24:2 0.3882
4 *24:3 0.495
5 *24:4 0.0413
6 *24:5 0.4651
7 *3:A3 0.4065
*RES
1 *18:ZN *24:1 0.3164
2 *24:1 *24:2 0.3513
3 *24:2 *24:3 0.1165
4 *24:3 *24:4 0.0986
5 *24:4 *24:5 0.2243
6 *24:5 *3:A3 0.1286
*END

*D_NET *25 1.4306
*CONN
*I *8:ZN O
*I *5:D I
*CAP
1 *8:ZN 0.2482
2 *25:1 0.1533
3 *25:2 0.4091
4 *25:3 0.2613
5 *5:D 0.3587
*RES
1 *8:ZN *25:1 0.1869
2 *25:1 *25:2 0.4974
3 *25:2 *25:3 0.3047
4 *25:3 *5:D 0.12
*END

*D_NET *26 0.527
*CONN
*P *26 I
*I *21:A1 I
*CAP
1 *26 0.121
2 *26:1 0.1014
3 *26:2 0.0283
4 *21:A1 0.2763
*RES
1 *26 *26:1 0.2945
2 *26:1 *26:2 0.3177
3 *26:2 *21:A1 0.2101
*END

*D_NET *27 1.4286
*CONN
*I *13:QN O
*I *23:A2 I
*CAP
1 *13:QN 0.2046
2 *27:1 0.1317
3 *27:2 0.3617
4 *27:3 0.0856
5 *27:4 0.3629
6 *23:A2 0.2821
*RES
1 *13:QN *27:1 0.39
2 *27:1 *27:2 0.0557
3 *27:2 *27:3 0.1253
4 *27:3 *27:4 0.2716
5 *27:4 *23:A2 0.3735
*END

*D_NET *28 1.5454
*CONN
*I *10:ZN O
*I *2:A1 I
*CAP
1 *10:ZN 0.3323
2 *28:1 0.0362
3 *28:2 0.4966
4 *28:3 0.4101
5 *2:A1 0.2702
*RES
1 *10:ZN *28:1 0.2135
2 *28:1 *28:2 0.0419
3 *28:2 *28:3 0.2773
4 *28:3 *2:A1 0.0903
*END

*D_NET *29 2.3457
*CONN
*P *30 I
*I *23:A1 I
*CAP
1 *30 0.4602
2 *29:1 0.2009
3 *29:2 0.3114
4 *29:3 0.309
5 *29:4 0.3972
6 *29:5 0.4228
7 *23:A1 0.2443
*RES
1 *30 *29:1 0.2458
2 *29:1 *29:2 0.3734
3 *29:2 *29:3 0.1567
4 *29:3 *29:4 0.1247
5 *29:4 *29:5 0.2439
6 *29:5 *23:A1 0.2588
*END

