*SPEF "IEEE 1481-1998"
*DESIGN "changes"
*DATE "Tue Dec 02 20:01:59 2014"
*VENDOR "TAU 2015 Contest"
*PROGRAM "Benchmark Parasitic Generator"
*VERSION "0.0"
*DESIGN_FLOW "NETLIST_TYPE_VERILOG"
*DIVIDER /
*DELIMITER :
*BUS_DELIMITER []
*T_UNIT 1 PS
*C_UNIT 1 FF
*R_UNIT 1 KOHM
*L_UNIT 1 UH

*NAME_MAP
*23 net_4
*22 TAUGATE_7
*21 inst_10
*20 TAUNET_7
*18 TAUNET_6
*17 TAUGATE_6
*5 TAUGATE_8
*4 net_11
*19 inst_1
*6 inst_0
*1 TAUNET_4
*14 net_10
*24 inst_7
*15 inst_14
*2 TAUGATE_9
*9 TAUNET_5
*3 TAUGATE_4
*7 TAUNET_9
*8 G3
*10 inst_5
*11 TAUGATE_5
*12 TAUNET_8
*16 net_8
*13 inst_2


*D_NET *1 1.7439
*CONN
*I *2:Z O
*I *3:A I
*CAP
1 *2:Z 0.2611
2 *1:1 0.4098
3 *1:2 0.5009
4 *1:3 0.2843
5 *3:A 0.2878
*RES
1 *2:Z *1:1 0.1659
2 *1:1 *1:2 0.2742
3 *1:2 *1:3 0.3494
4 *1:3 *3:A 0.1485
*END

*D_NET *4 1.376
*CONN
*I *5:Z O
*I *6:A1 I
*CAP
1 *5:Z 0.211
2 *4:1 0.307
3 *4:2 0.3583
4 *4:3 0.1395
5 *4:4 0.0646
6 *4:5 0.0794
7 *6:A1 0.2161
*RES
1 *5:Z *4:1 0.1614
2 *4:1 *4:2 0.3312
3 *4:2 *4:3 0.3755
4 *4:3 *4:4 0.4644
5 *4:4 *4:5 0.4559
6 *4:5 *6:A1 0.405
*END

*D_NET *7 0.4849
*CONN
*P *8 I
*I *2:A I
*CAP
1 *8 0.167
2 *7:1 0.244
3 *7:2 0.0332
4 *2:A 0.0406
*RES
1 *8 *7:1 0.2732
2 *7:1 *7:2 0.0073
3 *7:2 *2:A 0.1308
*END

*D_NET *9 1.8161
*CONN
*I *10:ZN O
*I *11:A I
*CAP
1 *10:ZN 0.2909
2 *9:1 0.074
3 *9:2 0.4871
4 *9:3 0.4951
5 *9:4 0.4125
6 *11:A 0.0565
*RES
1 *10:ZN *9:1 0.1285
2 *9:1 *9:2 0.0292
3 *9:2 *9:3 0.2926
4 *9:3 *9:4 0.4507
5 *9:4 *11:A 0.3356
*END

*D_NET *12 1.9602
*CONN
*I *13:ZN O
*I *5:A I
*CAP
1 *13:ZN 0.3845
2 *12:1 0.3056
3 *12:2 0.3464
4 *12:3 0.0305
5 *12:4 0.2383
6 *12:5 0.402
7 *5:A 0.2529
*RES
1 *13:ZN *12:1 0.2665
2 *12:1 *12:2 0.4354
3 *12:2 *12:3 0.1977
4 *12:3 *12:4 0.0788
5 *12:4 *12:5 0.3276
6 *12:5 *5:A 0.3833
*END

*D_NET *14 0.867
*CONN
*I *11:Z O
*I *15:D I
*CAP
1 *11:Z 0.0716
2 *14:1 0.1922
3 *14:2 0.2805
4 *14:3 0.1322
5 *15:D 0.1905
*RES
1 *11:Z *14:1 0.4017
2 *14:1 *14:2 0.468
3 *14:2 *14:3 0.2976
4 *14:3 *15:D 0.2331
*END

*D_NET *16 1.3358
*CONN
*I *17:Z O
*I *6:A3 I
*CAP
1 *17:Z 0.3943
2 *16:1 0.1955
3 *16:2 0.1868
4 *16:3 0.4889
5 *6:A3 0.0703
*RES
1 *17:Z *16:1 0.3298
2 *16:1 *16:2 0.4131
3 *16:2 *16:3 0.331
4 *16:3 *6:A3 0.2621
*END

*D_NET *18 0.9833
*CONN
*I *19:ZN O
*I *17:A I
*CAP
1 *19:ZN 0.1808
2 *18:1 0.399
3 *17:A 0.4035
*RES
1 *19:ZN *18:1 0.0219
2 *18:1 *17:A 0.083
*END

*D_NET *20 1.6212
*CONN
*I *21:ZN O
*I *22:A I
*CAP
1 *21:ZN 0.125
2 *20:1 0.4976
3 *20:2 0.3591
4 *20:3 0.278
5 *20:4 0.2022
6 *22:A 0.1593
*RES
1 *21:ZN *20:1 0.4382
2 *20:1 *20:2 0.3498
3 *20:2 *20:3 0.4055
4 *20:3 *20:4 0.4519
5 *20:4 *22:A 0.4658
*END

*D_NET *23 1.1222
*CONN
*I *22:Z O
*I *24:A1 I
*CAP
1 *22:Z 0.4019
2 *23:1 0.2503
3 *24:A1 0.47
*RES
1 *22:Z *23:1 0.3789
2 *23:1 *24:A1 0.3545
*END

