*SPEF "IEEE 1481-1998"
*DESIGN "changes"
*DATE "Tue Dec 02 20:02:00 2014"
*VENDOR "TAU 2015 Contest"
*PROGRAM "Benchmark Parasitic Generator"
*VERSION "0.0"
*DESIGN_FLOW "NETLIST_TYPE_VERILOG"
*DIVIDER /
*DELIMITER :
*BUS_DELIMITER []
*T_UNIT 1 PS
*C_UNIT 1 FF
*R_UNIT 1 KOHM
*L_UNIT 1 UH

*NAME_MAP
*119 net_4
*118 TAUNET_39
*117 TAUNET_23
*116 TAUNET_6
*110 TAUNET_36
*109 inst_11
*107 net_11
*106 TAUNET_17
*105 TAUNET_10
*104 TAUNET_20
*103 TAUNET_15
*100 TAUGATE_2
*99 TAUNET_29
*98 TAUNET_38
*97 TAUNET_32
*96 TAUGATE_37
*95 TAUGATE_6
*91 inst_13
*90 G17
*85 TAUNET_18
*84 TAUGATE_9
*83 TAUGATE_18
*81 inst_0
*36 inst_2
*33 inst_15
*35 TAUGATE_17
*77 TAUNET_7
*88 reset_net
*63 TAUNET_16
*29 inst_7
*8 TAUGATE_3
*14 inst_6
*49 TAUNET_30
*82 TAUNET_9
*27 net_3
*34 net_6
*56 TAUGATE_10
*80 net_5
*25 TAUGATE_1
*24 TAUGATE_29
*23 TAUNET_1
*57 inst_4
*18 TAUNET_19
*76 TAUGATE_27
*17 TAUGATE_34
*26 inst_5
*108 TAUNET_14
*93 TAUGATE_40
*21 TAUGATE_20
*20 G3
*112 net_8
*58 net_10
*31 TAUGATE_36
*59 net_9
*67 inst_9
*3 TAUGATE_4
*64 TAUGATE_16
*94 TAUNET_37
*53 TAUNET_5
*4 TAUNET_13
*72 G0
*13 TAUGATE_14
*7 TAUNET_12
*113 TAUNET_2
*71 TAUNET_25
*65 net_7
*19 TAUGATE_19
*28 TAUGATE_22
*5 TAUGATE_5
*69 TAUGATE_7
*1 TAUNET_4
*2 TAUGATE_38
*15 TAUNET_34
*111 TAUNET_8
*9 TAUGATE_12
*6 TAUGATE_13
*11 inst_10
*32 inst_12
*114 TAUNET_26
*10 G1
*30 net_16
*70 TAUGATE_31
*86 TAUNET_3
*37 TAUNET_35
*87 TAUNET_21
*41 inst_8
*52 TAUGATE_15
*39 TAUGATE_35
*89 TAUGATE_21
*40 net_1
*42 TAUNET_33
*55 net_2
*16 G2
*43 inst_3
*44 TAUGATE_33
*74 TAUNET_27
*45 TAUNET_11
*22 inst_1
*46 TAUGATE_11
*115 TAUGATE_26
*79 TAUGATE_28
*47 TAUNET_22
*38 inst_16
*48 inst_14
*12 net_15
*50 TAUGATE_30
*54 TAUGATE_32
*60 TAUGATE_23
*101 net_13
*61 TAUNET_24
*102 TAUNET_40
*62 TAUGATE_24
*92 net_14
*66 TAUGATE_39
*75 TAUGATE_8
*68 TAUNET_31
*73 TAUGATE_25
*51 net_12
*78 TAUNET_28


*D_NET *1 1.7439
*CONN
*I *2:Z O
*I *3:A I
*CAP
1 *2:Z 0.2611
2 *1:1 0.4098
3 *1:2 0.5009
4 *1:3 0.2843
5 *3:A 0.2878
*RES
1 *2:Z *1:1 0.1659
2 *1:1 *1:2 0.2742
3 *1:2 *1:3 0.3494
4 *1:3 *3:A 0.1485
*END

*D_NET *4 1.376
*CONN
*I *5:Z O
*I *6:A I
*CAP
1 *5:Z 0.211
2 *4:1 0.307
3 *4:2 0.3583
4 *4:3 0.1395
5 *4:4 0.0646
6 *4:5 0.0794
7 *6:A 0.2161
*RES
1 *5:Z *4:1 0.1614
2 *4:1 *4:2 0.3312
3 *4:2 *4:3 0.3755
4 *4:3 *4:4 0.4644
5 *4:4 *4:5 0.4559
6 *4:5 *6:A 0.405
*END

*D_NET *7 0.4849
*CONN
*I *8:Z O
*I *9:A I
*CAP
1 *8:Z 0.167
2 *7:1 0.244
3 *7:2 0.0332
4 *9:A 0.0406
*RES
1 *8:Z *7:1 0.2732
2 *7:1 *7:2 0.0073
3 *7:2 *9:A 0.1308
*END

*D_NET *10 1.8161
*CONN
*I *9:Z O
*I *11:A I
*CAP
1 *9:Z 0.2909
2 *10:1 0.074
3 *10:2 0.4871
4 *10:3 0.4951
5 *10:4 0.4125
6 *11:A 0.0565
*RES
1 *9:Z *10:1 0.1285
2 *10:1 *10:2 0.0292
3 *10:2 *10:3 0.2926
4 *10:3 *10:4 0.4507
5 *10:4 *11:A 0.3356
*END

*D_NET *12 1.9602
*CONN
*I *13:Z O
*I *14:A2 I
*CAP
1 *13:Z 0.3845
2 *12:1 0.3056
3 *12:2 0.3464
4 *12:3 0.0305
5 *12:4 0.2383
6 *12:5 0.402
7 *14:A2 0.2529
*RES
1 *13:Z *12:1 0.2665
2 *12:1 *12:2 0.4354
3 *12:2 *12:3 0.1977
4 *12:3 *12:4 0.0788
5 *12:4 *12:5 0.3276
6 *12:5 *14:A2 0.3833
*END

*D_NET *15 0.867
*CONN
*P *16 I
*I *17:A I
*CAP
1 *16 0.0716
2 *15:1 0.1922
3 *15:2 0.2805
4 *15:3 0.1322
5 *17:A 0.1905
*RES
1 *16 *15:1 0.4017
2 *15:1 *15:2 0.468
3 *15:2 *15:3 0.2976
4 *15:3 *17:A 0.2331
*END

*D_NET *18 1.3358
*CONN
*I *11:ZN O
*I *19:A I
*CAP
1 *11:ZN 0.3943
2 *18:1 0.1955
3 *18:2 0.1868
4 *18:3 0.4889
5 *19:A 0.0703
*RES
1 *11:ZN *18:1 0.3298
2 *18:1 *18:2 0.4131
3 *18:2 *18:3 0.331
4 *18:3 *19:A 0.2621
*END

*D_NET *20 0.9833
*CONN
*I *21:Z O
*I *22:A2 I
*CAP
1 *21:Z 0.1808
2 *20:1 0.399
3 *22:A2 0.4035
*RES
1 *21:Z *20:1 0.0219
2 *20:1 *22:A2 0.083
*END

*D_NET *23 1.6212
*CONN
*I *24:Z O
*I *25:A I
*CAP
1 *24:Z 0.125
2 *23:1 0.4976
3 *23:2 0.3591
4 *23:3 0.278
5 *23:4 0.2022
6 *25:A 0.1593
*RES
1 *24:Z *23:1 0.4382
2 *23:1 *23:2 0.3498
3 *23:2 *23:3 0.4055
4 *23:3 *23:4 0.4519
5 *23:4 *25:A 0.4658
*END

*D_NET *16 1.1222
*CONN
*I *17:Z O
*I *26:A1 I
*CAP
1 *17:Z 0.4019
2 *16:1 0.2503
3 *26:A1 0.47
*RES
1 *17:Z *16:1 0.3789
2 *16:1 *26:A1 0.3545
*END

*D_NET *27 1.0398
*CONN
*I *28:Z O
*I *29:A2 I
*CAP
1 *28:Z 0.4316
2 *27:1 0.4734
3 *27:2 0.0376
4 *29:A2 0.0972
*RES
1 *28:Z *27:1 0.3594
2 *27:1 *27:2 0.0525
3 *27:2 *29:A2 0.3248
*END

*D_NET *30 3.3972
*CONN
*I *31:Z O
*I *32:A I
*I *33:D I
*I *14:A1 I
*CAP
1 *31:Z 0.1267
2 *30:1 0.2434
3 *30:2 0.3726
4 *30:3 0.298
5 *30:4 0.2454
6 *33:D 0.467
7 *30:5 0.3699
8 *32:A 0.4131
9 *30:6 0.0282
10 *30:7 0.3089
11 *30:8 0.0253
12 *30:9 0.3105
13 *14:A1 0.1881
*RES
1 *31:Z *30:1 0.1921
2 *30:1 *30:2 0.1376
3 *30:2 *30:3 0.4443
4 *30:3 *30:4 0.1288
5 *30:4 *33:D 0.3022
6 *30:1 *30:5 0.4004
7 *30:5 *32:A 0.4814
8 *30:2 *30:6 0.2034
9 *30:6 *30:7 0.1592
10 *30:7 *30:8 0.3147
11 *30:8 *30:9 0.2761
12 *30:9 *14:A1 0.3643
*END

*D_NET *34 1.2795
*CONN
*I *35:Z O
*I *36:A1 I
*CAP
1 *35:Z 0.0666
2 *34:1 0.358
3 *34:2 0.3774
4 *34:3 0.2731
5 *34:4 0.1525
6 *36:A1 0.0518
*RES
1 *35:Z *34:1 0.2548
2 *34:1 *34:2 0.2154
3 *34:2 *34:3 0.4921
4 *34:3 *34:4 0.1648
5 *34:4 *36:A1 0.1855
*END

*D_NET *37 1.0916
*CONN
*I *38:QN O
*I *39:A I
*CAP
1 *38:QN 0.353
2 *37:1 0.2239
3 *37:2 0.0917
4 *39:A 0.423
*RES
1 *38:QN *37:1 0.1494
2 *37:1 *37:2 0.329
3 *37:2 *39:A 0.162
*END

*D_NET *40 1.1549
*CONN
*I *39:Z O
*I *41:A I
*CAP
1 *39:Z 0.2883
2 *40:1 0.4381
3 *40:2 0.3484
4 *41:A 0.0801
*RES
1 *39:Z *40:1 0.1392
2 *40:1 *40:2 0.1891
3 *40:2 *41:A 0.0464
*END

*D_NET *42 1.0649
*CONN
*I *43:ZN O
*I *44:A I
*CAP
1 *43:ZN 0.0279
2 *42:1 0.0649
3 *42:2 0.051
4 *42:3 0.16
5 *42:4 0.1748
6 *42:5 0.4787
7 *44:A 0.1076
*RES
1 *43:ZN *42:1 0.4606
2 *42:1 *42:2 0.3388
3 *42:2 *42:3 0.4657
4 *42:3 *42:4 0.3595
5 *42:4 *42:5 0.2471
6 *42:5 *44:A 0.0832
*END

*D_NET *45 0.8209
*CONN
*I *36:ZN O
*I *46:A I
*CAP
1 *36:ZN 0.3736
2 *45:1 0.3644
3 *46:A 0.0829
*RES
1 *36:ZN *45:1 0.1977
2 *45:1 *46:A 0.4694
*END

*D_NET *47 2.0853
*CONN
*I *48:QN O
*I *28:A I
*CAP
1 *48:QN 0.3882
2 *47:1 0.0413
3 *47:2 0.4651
4 *47:3 0.4065
5 *47:4 0.3164
6 *47:5 0.3513
7 *28:A 0.1165
*RES
1 *48:QN *47:1 0.0986
2 *47:1 *47:2 0.2243
3 *47:2 *47:3 0.1286
4 *47:3 *47:4 0.4269
5 *47:4 *47:5 0.2482
6 *47:5 *28:A 0.2195
*END

*D_NET *49 1.7569
*CONN
*I *32:ZN O
*I *50:A I
*CAP
1 *32:ZN 0.4091
2 *49:1 0.3587
3 *49:2 0.1869
4 *49:3 0.4974
5 *50:A 0.3047
*RES
1 *32:ZN *49:1 0.12
2 *49:1 *49:2 0.4969
3 *49:2 *49:3 0.121
4 *49:3 *50:A 0.1733
*END

*D_NET *51 2.6552
*CONN
*I *52:Z O
*I *48:RN I
*I *33:RN I
*I *38:RN I
*CAP
1 *52:Z 0.0283
2 *51:1 0.2945
3 *51:2 0.3177
4 *51:3 0.2101
5 *48:RN 0.339
6 *51:4 0.39
7 *51:5 0.0557
8 *51:6 0.1253
9 *33:RN 0.2716
10 *51:7 0.2135
11 *51:8 0.0419
12 *51:9 0.2773
13 *38:RN 0.0903
*RES
1 *52:Z *51:1 0.2046
2 *51:1 *51:2 0.3404
3 *51:2 *51:3 0.1317
4 *51:3 *48:RN 0.3617
5 *51:3 *51:4 0.3735
6 *51:4 *51:5 0.1079
7 *51:5 *51:6 0.3323
8 *51:6 *33:RN 0.2907
9 *51:6 *51:7 0.0485
10 *51:7 *51:8 0.4602
11 *51:8 *51:9 0.4262
12 *51:9 *38:RN 0.2009
*END

*D_NET *53 1.7519
*CONN
*I *54:Z O
*I *5:A I
*CAP
1 *54:Z 0.309
2 *53:1 0.4228
3 *53:2 0.2443
4 *53:3 0.2458
5 *53:4 0.3734
6 *5:A 0.1567
*RES
1 *54:Z *53:1 0.1247
2 *53:1 *53:2 0.2439
3 *53:2 *53:3 0.2588
4 *53:3 *53:4 0.4474
5 *53:4 *5:A 0.3528
*END

*D_NET *55 3.046
*CONN
*I *56:Z O
*I *43:A1 I
*I *57:A1 I
*CAP
1 *56:Z 0.4436
2 *55:1 0.3275
3 *55:2 0.0169
4 *43:A1 0.4026
5 *55:3 0.3875
6 *55:4 0.4796
7 *55:5 0.374
8 *55:6 0.1554
9 *55:7 0.0209
10 *57:A1 0.438
*RES
1 *56:Z *55:1 0.4684
2 *55:1 *55:2 0.249
3 *55:2 *43:A1 0.0579
4 *55:2 *55:3 0.413
5 *55:3 *55:4 0.499
6 *55:4 *55:5 0.2134
7 *55:5 *55:6 0.1115
8 *55:6 *55:7 0.4947
9 *55:7 *57:A1 0.3666
*END

*D_NET *58 1.7795
*CONN
*I *6:Z O
*I *48:D I
*CAP
1 *6:Z 0.4464
2 *58:1 0.2969
3 *58:2 0.3091
4 *58:3 0.5006
5 *48:D 0.2264
*RES
1 *6:Z *58:1 0.3973
2 *58:1 *58:2 0.2044
3 *58:2 *58:3 0.1531
4 *58:3 *48:D 0.3886
*END

*D_NET *59 1.6529
*CONN
*I *60:Z O
*I *36:A2 I
*I *26:A2 I
*CAP
1 *60:Z 0.2468
2 *59:1 0.3652
3 *59:2 0.1857
4 *59:3 0.0562
5 *59:4 0.0882
6 *26:A2 0.4386
7 *59:5 0.1095
8 *59:6 0.0212
9 *36:A2 0.1417
*RES
1 *60:Z *59:1 0.2715
2 *59:1 *59:2 0.0199
3 *59:2 *59:3 0.4145
4 *59:3 *59:4 0.1459
5 *59:4 *26:A2 0.113
6 *59:1 *59:5 0.219
7 *59:5 *59:6 0.4826
8 *59:6 *36:A2 0.1138
*END

*D_NET *61 1.1966
*CONN
*I *41:ZN O
*I *62:A I
*CAP
1 *41:ZN 0.3663
2 *61:1 0.0526
3 *61:2 0.2388
4 *61:3 0.1787
5 *62:A 0.3603
*RES
1 *41:ZN *61:1 0.0603
2 *61:1 *61:2 0.0863
3 *61:2 *61:3 0.3102
4 *61:3 *62:A 0.1239
*END

*D_NET *63 1.6234
*CONN
*I *14:ZN O
*I *64:A I
*CAP
1 *14:ZN 0.0055
2 *63:1 0.2412
3 *63:2 0.3995
4 *63:3 0.4441
5 *63:4 0.4218
6 *63:5 0.0848
7 *64:A 0.0266
*RES
1 *14:ZN *63:1 0.0274
2 *63:1 *63:2 0.4218
3 *63:2 *63:3 0.2061
4 *63:3 *63:4 0.211
5 *63:4 *63:5 0.4583
6 *63:5 *64:A 0.3985
*END

*D_NET *65 1.9898
*CONN
*I *66:Z O
*I *67:A I
*CAP
1 *66:Z 0.0725
2 *65:1 0.3124
3 *65:2 0.3685
4 *65:3 0.4317
5 *65:4 0.1801
6 *65:5 0.2826
7 *67:A 0.342
*RES
1 *66:Z *65:1 0.0965
2 *65:1 *65:2 0.2555
3 *65:2 *65:3 0.1304
4 *65:3 *65:4 0.3675
5 *65:4 *65:5 0.4634
6 *65:5 *67:A 0.2869
*END

*D_NET *68 0.5511
*CONN
*I *69:Z O
*I *70:A I
*CAP
1 *69:Z 0.1182
2 *68:1 0.0608
3 *70:A 0.3721
*RES
1 *69:Z *68:1 0.4648
2 *68:1 *70:A 0.2376
*END

*D_NET *71 0.8353
*CONN
*P *72 I
*I *73:A I
*CAP
1 *72 0.3081
2 *71:1 0.0264
3 *71:2 0.2502
4 *73:A 0.2506
*RES
1 *72 *71:1 0.4486
2 *71:1 *71:2 0.0641
3 *71:2 *73:A 0.0138
*END

*D_NET *74 0.7959
*CONN
*I *75:Z O
*I *76:A I
*CAP
1 *75:Z 0.0204
2 *74:1 0.1001
3 *74:2 0.2747
4 *74:3 0.1704
5 *76:A 0.2303
*RES
1 *75:Z *74:1 0.0121
2 *74:1 *74:2 0.062
3 *74:2 *74:3 0.0267
4 *74:3 *76:A 0.1278
*END

*D_NET *77 1.5058
*CONN
*I *19:Z O
*I *69:A I
*CAP
1 *19:Z 0.3621
2 *77:1 0.349
3 *77:2 0.4751
4 *69:A 0.3195
*RES
1 *19:Z *77:1 0.4748
2 *77:1 *77:2 0.2505
3 *77:2 *69:A 0.2036
*END

*D_NET *78 1.2849
*CONN
*P *10 I
*I *79:A I
*CAP
1 *10 0.0185
2 *78:1 0.2437
3 *78:2 0.3641
4 *78:3 0.1411
5 *78:4 0.2452
6 *79:A 0.2723
*RES
1 *10 *78:1 0.2079
2 *78:1 *78:2 0.2449
3 *78:2 *78:3 0.0406
4 *78:3 *78:4 0.0917
5 *78:4 *79:A 0.0078
*END

*D_NET *80 0.3723
*CONN
*I *62:Z O
*I *81:A2 I
*CAP
1 *62:Z 0.0264
2 *80:1 0.1906
3 *81:A2 0.1553
*RES
1 *62:Z *80:1 0.0937
2 *80:1 *81:A2 0.2944
*END

*D_NET *82 0.9828
*CONN
*I *83:Z O
*I *84:A I
*CAP
1 *83:Z 0.0209
2 *82:1 0.1067
3 *82:2 0.4881
4 *84:A 0.3672
*RES
1 *83:Z *82:1 0.4629
2 *82:1 *82:2 0.1157
3 *82:2 *84:A 0.1901
*END

*D_NET *85 1.476
*CONN
*P *20 I
*I *83:A I
*CAP
1 *20 0.5008
2 *85:1 0.3428
3 *85:2 0.2325
4 *85:3 0.2733
5 *83:A 0.1266
*RES
1 *20 *85:1 0.3814
2 *85:1 *85:2 0.1363
3 *85:2 *85:3 0.3277
4 *85:3 *83:A 0.3144
*END

*D_NET *86 1.3785
*CONN
*I *79:Z O
*I *8:A I
*CAP
1 *79:Z 0.3676
2 *86:1 0.4423
3 *86:2 0.1159
4 *8:A 0.4527
*RES
1 *79:Z *86:1 0.1465
2 *86:1 *86:2 0.1463
3 *86:2 *8:A 0.4621
*END

*D_NET *87 0.8463
*CONN
*P *88 I
*I *89:A I
*CAP
1 *88 0.0227
2 *87:1 0.4114
3 *87:2 0.0715
4 *87:3 0.1546
5 *89:A 0.1861
*RES
1 *88 *87:1 0.4367
2 *87:1 *87:2 0.3452
3 *87:2 *87:3 0.0313
4 *87:3 *89:A 0.1217
*END

*D_NET *90 0.7321
*CONN
*I *50:Z O
*P *90 O
*CAP
1 *50:Z 0.1222
2 *90:1 0.1692
3 *90 0.4407
*RES
1 *50:Z *90:1 0.4978
2 *90:1 *90 0.2563
*END

*D_NET *88 1.2175
*CONN
*I *89:Z O
*I *91:A I
*CAP
1 *89:Z 0.2603
2 *88:1 0.3072
3 *88:2 0.2768
4 *88:3 0.1679
5 *91:A 0.2053
*RES
1 *89:Z *88:1 0.214
2 *88:1 *88:2 0.3306
3 *88:2 *88:3 0.1569
4 *88:3 *91:A 0.258
*END

*D_NET *92 2.4397
*CONN
*I *93:Z O
*I *22:A1 I
*CAP
1 *93:Z 0.4796
2 *92:1 0.4946
3 *92:2 0.4608
4 *92:3 0.4692
5 *92:4 0.4766
6 *22:A1 0.0589
*RES
1 *93:Z *92:1 0.0962
2 *92:1 *92:2 0.2415
3 *92:2 *92:3 0.175
4 *92:3 *92:4 0.4103
5 *92:4 *22:A1 0.0845
*END

*D_NET *94 0.7397
*CONN
*I *95:Z O
*I *96:A I
*CAP
1 *95:Z 0.1436
2 *94:1 0.4748
3 *94:2 0.0806
4 *96:A 0.0407
*RES
1 *95:Z *94:1 0.2069
2 *94:1 *94:2 0.0491
3 *94:2 *96:A 0.4137
*END

*D_NET *97 1.2657
*CONN
*I *26:ZN O
*I *54:A I
*CAP
1 *26:ZN 0.2987
2 *97:1 0.1831
3 *97:2 0.411
4 *97:3 0.0191
5 *54:A 0.3538
*RES
1 *26:ZN *97:1 0.43
2 *97:1 *97:2 0.3629
3 *97:2 *97:3 0.0787
4 *97:3 *54:A 0.2007
*END

*D_NET *98 2.1629
*CONN
*I *84:Z O
*I *2:A I
*CAP
1 *84:Z 0.4025
2 *98:1 0.3538
3 *98:2 0.4649
4 *98:3 0.0482
5 *98:4 0.1062
6 *98:5 0.2963
7 *2:A 0.4911
*RES
1 *84:Z *98:1 0.2002
2 *98:1 *98:2 0.2573
3 *98:2 *98:3 0.3761
4 *98:3 *98:4 0.0616
5 *98:4 *98:5 0.4298
6 *98:5 *2:A 0.2857
*END

*D_NET *99 0.6543
*CONN
*I *100:Z O
*I *24:A I
*CAP
1 *100:Z 0.047
2 *99:1 0.1738
3 *24:A 0.4336
*RES
1 *100:Z *99:1 0.4556
2 *99:1 *24:A 0.1284
*END

*D_NET *101 1.6488
*CONN
*I *64:Z O
*I *38:D I
*CAP
1 *64:Z 0.1731
2 *101:1 0.3095
3 *101:2 0.4895
4 *101:3 0.4033
5 *38:D 0.2734
*RES
1 *64:Z *101:1 0.3461
2 *101:1 *101:2 0.3729
3 *101:2 *101:3 0.0418
4 *101:3 *38:D 0.3671
*END

*D_NET *102 1.1766
*CONN
*I *25:Z O
*I *93:A I
*CAP
1 *25:Z 0.1458
2 *102:1 0.0683
3 *102:2 0.2135
4 *102:3 0.4484
5 *102:4 0.1379
6 *102:5 0.1139
7 *93:A 0.0489
*RES
1 *25:Z *102:1 0.0861
2 *102:1 *102:2 0.1477
3 *102:2 *102:3 0.4806
4 *102:3 *102:4 0.3473
5 *102:4 *102:5 0.1114
6 *102:5 *93:A 0.0198
*END

*D_NET *103 1.3546
*CONN
*I *91:ZN O
*I *52:A I
*CAP
1 *91:ZN 0.11
2 *103:1 0.329
3 *103:2 0.1592
4 *103:3 0.4236
5 *52:A 0.3328
*RES
1 *91:ZN *103:1 0.1906
2 *103:1 *103:2 0.5003
3 *103:2 *103:3 0.4347
4 *103:3 *52:A 0.3044
*END

*D_NET *104 1.5228
*CONN
*I *3:Z O
*I *21:A I
*CAP
1 *3:Z 0.0096
2 *104:1 0.2377
3 *104:2 0.2571
4 *104:3 0.361
5 *104:4 0.0042
6 *104:5 0.269
7 *21:A 0.3841
*RES
1 *3:Z *104:1 0.34
2 *104:1 *104:2 0.2352
3 *104:2 *104:3 0.3112
4 *104:3 *104:4 0.1345
5 *104:4 *104:5 0.4134
6 *104:5 *21:A 0.0741
*END

*D_NET *105 0.9047
*CONN
*I *33:QN O
*I *56:A I
*CAP
1 *33:QN 0.4891
2 *105:1 0.2122
3 *56:A 0.2034
*RES
1 *33:QN *105:1 0.1253
2 *105:1 *56:A 0.2112
*END

*D_NET *106 0.7145
*CONN
*I *57:ZN O
*I *35:A I
*CAP
1 *57:ZN 0.1106
2 *106:1 0.2644
3 *35:A 0.3395
*RES
1 *57:ZN *106:1 0.416
2 *106:1 *35:A 0.1311
*END

*D_NET *107 0.5652
*CONN
*I *76:Z O
*I *81:A1 I
*CAP
1 *76:Z 0.0535
2 *107:1 0.2939
3 *81:A1 0.2177
*RES
1 *76:Z *107:1 0.052
2 *107:1 *81:A1 0.1787
*END

*D_NET *108 1.2588
*CONN
*I *109:ZN O
*I *13:A I
*CAP
1 *109:ZN 0.2308
2 *108:1 0.4154
3 *108:2 0.4205
4 *13:A 0.1921
*RES
1 *109:ZN *108:1 0.3303
2 *108:1 *108:2 0.05
3 *108:2 *13:A 0.345
*END

*D_NET *110 1.3816
*CONN
*I *81:ZN O
*I *31:A I
*CAP
1 *81:ZN 0.2397
2 *110:1 0.045
3 *110:2 0.3586
4 *110:3 0.1804
5 *110:4 0.2132
6 *31:A 0.3448
*RES
1 *81:ZN *110:1 0.2539
2 *110:1 *110:2 0.0169
3 *110:2 *110:3 0.291
4 *110:3 *110:4 0.3418
5 *110:4 *31:A 0.0277
*END

*D_NET *111 0.7138
*CONN
*I *46:Z O
*I *75:A I
*CAP
1 *46:Z 0.07
2 *111:1 0.4916
3 *111:2 0.0258
4 *111:3 0.0722
5 *111:4 0.0268
6 *75:A 0.0274
*RES
1 *46:Z *111:1 0.0955
2 *111:1 *111:2 0.0758
3 *111:2 *111:3 0.073
4 *111:3 *111:4 0.2996
5 *111:4 *75:A 0.15
*END

*D_NET *112 1.1459
*CONN
*I *96:Z O
*I *81:A3 I
*CAP
1 *96:Z 0.0605
2 *112:1 0.4347
3 *112:2 0.2976
4 *81:A3 0.3531
*RES
1 *96:Z *112:1 0.0316
2 *112:1 *112:2 0.1823
3 *112:2 *81:A3 0.0755
*END

*D_NET *113 1.1637
*CONN
*I *44:Z O
*I *100:A I
*CAP
1 *44:Z 0.3515
2 *113:1 0.4269
3 *113:2 0.0493
4 *113:3 0.0341
5 *100:A 0.302
*RES
1 *44:Z *113:1 0.3389
2 *113:1 *113:2 0.4
3 *113:2 *113:3 0.0188
4 *113:3 *100:A 0.4709
*END

*D_NET *114 0.8262
*CONN
*I *22:ZN O
*I *115:A I
*CAP
1 *22:ZN 0.0122
2 *114:1 0.0936
3 *114:2 0.3051
4 *114:3 0.1197
5 *115:A 0.2956
*RES
1 *22:ZN *114:1 0.221
2 *114:1 *114:2 0.097
3 *114:2 *114:3 0.2798
4 *114:3 *115:A 0.315
*END

*D_NET *116 1.2664
*CONN
*I *115:Z O
*I *95:A I
*CAP
1 *115:Z 0.2108
2 *116:1 0.0161
3 *116:2 0.2047
4 *116:3 0.3729
5 *116:4 0.061
6 *95:A 0.401
*RES
1 *115:Z *116:1 0.291
2 *116:1 *116:2 0.3768
3 *116:2 *116:3 0.3083
4 *116:3 *116:4 0.125
5 *116:4 *95:A 0.3526
*END

*D_NET *117 1.6292
*CONN
*I *67:ZN O
*I *60:A I
*CAP
1 *67:ZN 0.3144
2 *117:1 0.082
3 *117:2 0.2174
4 *117:3 0.3638
5 *117:4 0.4097
6 *60:A 0.2418
*RES
1 *67:ZN *117:1 0.408
2 *117:1 *117:2 0.3118
3 *117:2 *117:3 0.4981
4 *117:3 *117:4 0.3134
5 *117:4 *60:A 0.4059
*END

*D_NET *118 0.9494
*CONN
*I *29:ZN O
*I *66:A I
*CAP
1 *29:ZN 0.091
2 *118:1 0.3093
3 *118:2 0.3342
4 *66:A 0.215
*RES
1 *29:ZN *118:1 0.0109
2 *118:1 *118:2 0.183
3 *118:2 *66:A 0.2298
*END

*D_NET *119 0.1587
*CONN
*I *70:Z O
*I *29:A1 I
*CAP
1 *70:Z 0.0044
2 *119:1 0.0476
3 *119:2 0.0521
4 *29:A1 0.0546
*RES
1 *70:Z *119:1 0.0043
2 *119:1 *119:2 0.2737
3 *119:2 *29:A1 0.4724
*END

*D_NET *72 3.7011
*CONN
*I *73:Z O
*I *43:A2 I
*I *57:A2 I
*I *109:A I
*CAP
1 *73:Z 0.2426
2 *72:1 0.2784
3 *72:2 0.2008
4 *57:A2 0.3776
5 *72:3 0.2336
6 *72:4 0.3863
7 *72:5 0.2365
8 *72:6 0.1037
9 *43:A2 0.3572
10 *72:7 0.4262
11 *72:8 0.3737
12 *72:9 0.3015
13 *109:A 0.183
*RES
1 *73:Z *72:1 0.2937
2 *72:1 *72:2 0.0093
3 *72:2 *57:A2 0.2822
4 *72:2 *72:3 0.2211
5 *72:3 *72:4 0.2185
6 *72:4 *72:5 0.2266
7 *72:5 *72:6 0.2538
8 *72:6 *43:A2 0.1297
9 *72:3 *72:7 0.3035
10 *72:7 *72:8 0.4053
11 *72:8 *72:9 0.0863
12 *72:9 *109:A 0.2362
*END

