*SPEF "IEEE 1481-1998"
*DESIGN "s27"
*DATE "Tue Nov 25 16:55:03 2014"
*VENDOR "TAU 2015 Contest"
*PROGRAM "Benchmark Parasitic Generator"
*VERSION "0.0"
*DESIGN_FLOW "NETLIST_TYPE_VERILOG"
*DIVIDER /
*DELIMITER :
*BUS_DELIMITER []
*T_UNIT 1 PS
*C_UNIT 1 FF
*R_UNIT 1 KOHM
*L_UNIT 1 UH

*NAME_MAP
*62 net_17
*61 net_4
*60 G0
*59 net_20
*57 inst_22
*56 net_21
*51 net_8
*49 net_2
*45 net_23
*44 net_1
*43 net_11
*42 inst_25
*39 inst_4
*37 net_16
*16 net_14
*6 net_15
*54 net_25
*25 inst_16
*40 inst_2
*30 inst_15
*55 inst_26
*1 G1
*11 inst_14
*10 inst_28
*9 net_27
*2 inst_10
*3 net_5
*41 net_24
*32 net_3
*46 net_18
*5 inst_0
*48 net_12
*47 inst_19
*18 inst_1
*17 inst_3
*53 inst_9
*52 net_9
*50 net_10
*14 reset_net
*19 G3
*7 inst_11
*15 inst_13
*27 inst_5
*22 clk_net
*38 net_6
*20 net_26
*23 inst_18
*24 net_13
*26 G2
*58 net_7
*33 inst_7
*8 inst_6
*28 net_19
*12 G17
*34 net_22
*29 inst_20
*13 inst_12
*31 inst_21
*4 inst_8
*21 inst_27
*35 inst_23
*36 inst_24


*D_NET *1 0.9267
*CONN
*P *1 I
*I *2:A I
*CAP
1 *1 0.0012
2 *2:A 0.0166
3 *1:1 0.0126
4 *1:2 0.2013
5 *1:3 0.2013
6 *1:4 0.2487
7 *1:5 0.245
*RES
1 *1 *1:1 0.001
2 *2:A *1:5 0.005
3 *1:2 *1:1 0.005
4 *1:2 *1:3 0.0268
5 *1:4 *1:3 0.005
6 *1:4 *1:5 0.021
*END

*D_NET *3 0.2079
*CONN
*I *4:ZN O
*I *5:A2 I
*CAP
1 *4:ZN 0.0632
2 *5:A2 0.0166
3 *3:1 0.0715
4 *3:2 0.0283
5 *3:3 0.0283
*RES
1 *4:ZN *3:1 0.0062
2 *5:A2 *3:3 0.005
3 *3:2 *3:1 0.005
4 *3:3 *3:2 0.002
*END

*D_NET *6 0.1214
*CONN
*I *7:ZN O
*I *8:A2 I
*CAP
1 *7:ZN 0.0607
2 *8:A2 0.0607
*RES
1 *7:ZN *8:A2 0.0083
*END

*D_NET *9 0.5578
*CONN
*I *10:Z O
*I *11:CK I
*CAP
1 *10:Z 0.244
2 *9:1 0.0406
3 *11:CK 0.2732
*RES
1 *10:Z *9:1 0.0073
2 *9:1 *11:CK 0.1308
*END

*D_NET *12 0.9358
*CONN
*I *13:ZN O
*P *12 O
*CAP
1 *12 0.0086
2 *13:ZN 0.0166
3 *12:1 0.2029
4 *12:2 0.2029
5 *12:3 0.2288
6 *12:4 0.2348
7 *12:5 0.0211
8 *12:6 0.02
*RES
1 *12:1 *13:ZN 0.005
2 *12:1 *12:2 0.0175
3 *12:3 *12:2 0.005
4 *12:3 *12:4 0.0244
5 *12:4 *12:5 0.001
6 *12:6 *12 0.001
7 *12:6 *12:5 0.005
*END

*D_NET *14 0.9538
*CONN
*P *14 I
*I *15:A I
*CAP
1 *14 0.001
2 *15:A 0.0166
3 *14:1 0.0121
4 *14:2 0.0507
5 *14:3 0.0507
6 *14:4 0.0152
7 *14:5 0.1618
8 *14:6 0.1618
9 *14:7 0.2419
10 *14:8 0.2419
*RES
1 *14 *14:1 0.001
2 *15:A *14:8 0.005
3 *14:2 *14:1 0.005
4 *14:2 *14:3 0.0045
5 *14:4 *14:3 0.005
6 *14:5 *14:4 0.005
7 *14:5 *14:6 0.017
8 *14:7 *14:6 0.005
9 *14:7 *14:8 0.0205
*END

*D_NET *16 0.2726
*CONN
*I *17:ZN O
*I *18:A1 I
*CAP
1 *17:ZN 0.0166
2 *18:A1 0.0076
3 *16:1 0.0246
4 *16:2 0.0246
5 *16:3 0.0762
6 *16:4 0.0762
7 *16:5 0.0155
8 *16:6 0.0155
9 *16:7 0.0159
*RES
1 *16:1 *17:ZN 0.005
2 *16:2 *16:1 0.0015
3 *16:3 *16:2 0.005
4 *16:3 *16:4 0.0068
5 *16:5 *16:4 0.005
6 *16:6 *16:5 0.001
7 *16:7 *18:A1 0.001
8 *16:7 *16:6 0.005
*END

*D_NET *19 0.8146
*CONN
*P *19 I
*I *18:A2 I
*CAP
1 *19 0.0013
2 *18:A2 0.0166
3 *19:1 0.0127
4 *19:2 0.0159
5 *19:3 0.0056
6 *19:4 0.167
7 *19:5 0.1735
8 *19:6 0.211
9 *19:7 0.211
*RES
1 *18:A2 *19:7 0.005
2 *19:1 *19 0.001
3 *19:2 *19:1 0.005
4 *19:3 *19:2 0.001
5 *19:3 *19:4 0.001
6 *19:5 *19:4 0.0183
7 *19:6 *19:5 0.005
8 *19:6 *19:7 0.018
*END

*D_NET *20 1.8161
*CONN
*I *21:Z O
*I *10:A I
*CAP
1 *21:Z 0.2909
2 *20:1 0.074
3 *20:2 0.4871
4 *20:3 0.4951
5 *20:4 0.4125
6 *10:A 0.0565
*RES
1 *21:Z *20:1 0.1285
2 *20:1 *20:2 0.0292
3 *20:2 *20:3 0.2926
4 *20:3 *20:4 0.4507
5 *20:4 *10:A 0.3356
*END

*D_NET *22 0.867
*CONN
*P *22 I
*I *23:A I
*CAP
1 *22 0.0716
2 *22:1 0.1922
3 *22:2 0.2805
4 *22:3 0.1322
5 *23:A 0.1905
*RES
1 *22 *22:1 0.4017
2 *22:1 *22:2 0.468
3 *22:2 *22:3 0.2976
4 *22:3 *23:A 0.2331
*END

*D_NET *24 0.2191
*CONN
*I *8:ZN O
*I *25:D I
*CAP
1 *8:ZN 0.0166
2 *25:D 0.0143
3 *24:1 0.0226
4 *24:2 0.0152
5 *24:3 0.0199
6 *24:4 0.0199
7 *24:5 0.0553
8 *24:6 0.0553
*RES
1 *8:ZN *24:6 0.005
2 *25:D *24:1 0.0021
3 *24:2 *24:1 0.005
4 *24:3 *24:2 0.005
5 *24:3 *24:4 0.0014
6 *24:5 *24:4 0.005
7 *24:5 *24:6 0.0035
*END

*D_NET *26 0.9333
*CONN
*P *26 I
*I *27:A1 I
*CAP
1 *26 0.0012
2 *27:A1 0.0166
3 *26:1 0.0126
4 *26:2 0.2205
5 *26:3 0.2205
6 *26:4 0.2328
7 *26:5 0.229
*RES
1 *26 *26:1 0.001
2 *27:A1 *26:5 0.005
3 *26:2 *26:1 0.005
4 *26:3 *26:2 0.0315
5 *26:4 *26:3 0.005
6 *26:4 *26:5 0.0215
*END

*D_NET *28 2.7698
*CONN
*I *29:Z O
*I *30:CK I
*I *31:A I
*CAP
1 *29:Z 0.1808
2 *28:1 0.399
3 *31:A 0.4035
4 *28:2 0.3591
5 *28:3 0.278
6 *28:4 0.2022
7 *28:5 0.1593
8 *28:6 0.4382
9 *30:CK 0.3498
*RES
1 *29:Z *28:1 0.0219
2 *28:1 *31:A 0.083
3 *28:1 *28:2 0.4055
4 *28:2 *28:3 0.4519
5 *28:3 *28:4 0.4658
6 *28:4 *28:5 0.369
7 *28:5 *28:6 0.4019
8 *28:6 *30:CK 0.0632
*END

*D_NET *32 0.0415
*CONN
*I *11:QN O
*I *33:A2 I
*CAP
1 *33:A2 0.001
2 *11:QN 0.001
3 *32:1 0.0198
4 *32:2 0.0198
*RES
1 *11:QN *32:2 0.005
2 *32:1 *33:A2 0.005
3 *32:2 *32:1 0.0014
*END

*D_NET *34 1.7532
*CONN
*I *35:Z O
*I *36:A I
*CAP
1 *35:Z 0.1267
2 *34:1 0.2434
3 *34:2 0.3726
4 *34:3 0.298
5 *34:4 0.2454
6 *36:A 0.467
*RES
1 *35:Z *34:1 0.1921
2 *34:1 *34:2 0.1376
3 *34:2 *34:3 0.4443
4 *34:3 *34:4 0.1288
5 *34:4 *36:A 0.3022
*END

*D_NET *37 0.788
*CONN
*I *5:ZN O
*I *13:A I
*I *30:D I
*I *8:A1 I
*CAP
1 *13:A 0.0447
2 *5:ZN 0.0166
3 *30:D 0.0143
4 *8:A1 0.0656
5 *37:1 0.0444
6 *37:2 0.0612
7 *37:3 0.1142
8 *37:4 0.1142
9 *37:5 0.026
10 *37:6 0.026
11 *37:7 0.0152
12 *37:8 0.0226
13 *37:9 0.0152
14 *37:10 0.0612
15 *37:11 0.0612
16 *37:12 0.0426
17 *37:13 0.0426
*RES
1 *30:D *37:8 0.0021
2 *8:A1 *37:2 0.0072
3 *8:A1 *37:3 0.005
4 *37:1 *13:A 0.0052
5 *37:2 *37:1 0.001
6 *37:4 *37:3 0.009
7 *37:4 *37:5 0.005
8 *37:6 *37:5 0.002
9 *37:6 *37:7 0.005
10 *37:7 *37:8 0.005
11 *37:9 *5:ZN 0.005
12 *37:10 *37:9 0.005
13 *37:11 *37:10 0.0054
14 *37:12 *37:11 0.005
15 *37:12 *37:13 0.003
16 *37:13 *13:A 0.005
*END

*D_NET *38 0.2078
*CONN
*I *39:ZN O
*I *40:A1 I
*CAP
1 *39:ZN 0.0203
2 *40:A1 0.0076
3 *38:1 0.0159
4 *38:2 0.0677
5 *38:3 0.0677
6 *38:4 0.0286
*RES
1 *39:ZN *38:4 0.0041
2 *38:1 *40:A1 0.001
3 *38:2 *38:1 0.005
4 *38:2 *38:3 0.0055
5 *38:4 *38:3 0.005
*END

*D_NET *41 1.8873
*CONN
*I *42:Z O
*I *25:CK I
*CAP
1 *42:Z 0.0668
2 *41:1 0.4131
3 *41:2 0.4004
4 *41:3 0.4814
5 *41:4 0.1341
6 *25:CK 0.3915
*RES
1 *42:Z *41:1 0.0282
2 *41:1 *41:2 0.3089
3 *41:2 *41:3 0.0253
4 *41:3 *41:4 0.3105
5 *41:4 *25:CK 0.1881
*END

*D_NET *43 0.1753
*CONN
*I *40:ZN O
*I *5:A1 I
*CAP
1 *40:ZN 0.0166
2 *5:A1 0.0388
3 *43:1 0.0364
4 *43:2 0.0364
5 *43:3 0.0471
*RES
1 *43:1 *40:ZN 0.005
2 *43:1 *43:2 0.0045
3 *43:3 *5:A1 0.0052
4 *43:3 *43:2 0.005
*END

*D_NET *44 0.1746
*CONN
*I *25:QN O
*I *4:A I
*CAP
1 *4:A 0.0074
2 *25:QN 0.0166
3 *44:1 0.0157
4 *44:2 0.0152
5 *44:3 0.0435
6 *44:4 0.0435
7 *44:5 0.0164
8 *44:6 0.0164
*RES
1 *25:QN *44:6 0.005
2 *44:1 *4:A 0.001
3 *44:2 *44:1 0.005
4 *44:3 *44:2 0.005
5 *44:4 *44:3 0.0034
6 *44:5 *44:4 0.005
7 *44:5 *44:6 0.001
*END

*D_NET *45 1.1787
*CONN
*I *36:Z O
*I *42:A I
*CAP
1 *36:Z 0.1659
2 *45:1 0.3494
3 *45:2 0.1485
4 *45:3 0.3039
5 *42:A 0.211
*RES
1 *36:Z *45:1 0.4685
2 *45:1 *45:2 0.307
3 *45:2 *45:3 0.3583
4 *45:3 *42:A 0.1395
*END

*D_NET *46 1.4119
*CONN
*I *47:Z O
*I *29:A I
*CAP
1 *47:Z 0.0794
2 *46:1 0.1614
3 *46:2 0.3312
4 *46:3 0.3755
5 *29:A 0.4644
*RES
1 *47:Z *46:1 0.4559
2 *46:1 *46:2 0.405
3 *46:2 *46:3 0.0154
4 *46:3 *29:A 0.167
*END

*D_NET *48 0.7695
*CONN
*I *15:ZN O
*I *11:RN I
*I *30:RN I
*I *25:RN I
*CAP
1 *15:ZN 0.0166
2 *11:RN 0.0072
3 *30:RN 0.0166
4 *25:RN 0.0166
5 *48:1 0.1059
6 *48:2 0.0239
7 *48:3 0.0325
8 *48:4 0.0302
9 *48:5 0.1854
10 *48:6 0.0384
11 *48:7 0.0152
12 *48:8 0.0155
13 *48:9 0.0957
14 *48:10 0.0152
15 *48:11 0.1546
*RES
1 *48:1 *30:RN 0.005
2 *48:1 *48:9 0.0065
3 *48:2 *48:1 0.0015
4 *48:2 *48:3 0.001
5 *48:4 *48:3 0.002
6 *48:5 *48:4 0.005
7 *48:5 *48:6 0.0014
8 *48:6 *48:7 0.005
9 *48:7 *48:8 0.005
10 *48:8 *11:RN 0.001
11 *48:9 *25:RN 0.005
12 *48:10 *15:ZN 0.005
13 *48:11 *48:5 0.0088
14 *48:11 *48:10 0.005
*END

*D_NET *49 0.2418
*CONN
*I *30:QN O
*I *17:A1 I
*I *39:A1 I
*CAP
1 *17:A1 0.0076
2 *39:A1 0.0166
3 *30:QN 0.0166
4 *49:1 0.0159
5 *49:2 0.083
6 *49:3 0.0709
7 *49:4 0.0312
*RES
1 *49:1 *17:A1 0.001
2 *49:2 *49:1 0.005
3 *49:2 *49:3 0.0075
4 *49:3 *39:A1 0.005
5 *49:4 *30:QN 0.005
6 *49:4 *49:2 0.0014
*END

*D_NET *50 0.3307
*CONN
*I *27:ZN O
*I *11:D I
*CAP
1 *27:ZN 0.0166
2 *11:D 0.0143
3 *50:1 0.0178
4 *50:2 0.0178
5 *50:3 0.1132
6 *50:4 0.1132
7 *50:5 0.0152
8 *50:6 0.0226
*RES
1 *11:D *50:6 0.0021
2 *50:1 *27:ZN 0.005
3 *50:2 *50:1 0.001
4 *50:3 *50:2 0.005
5 *50:4 *50:3 0.0109
6 *50:5 *50:4 0.005
7 *50:6 *50:5 0.005
*END

*D_NET *51 0.2779
*CONN
*I *18:ZN O
*I *5:A3 I
*CAP
1 *18:ZN 0.0166
2 *5:A3 0.0166
3 *51:1 0.0819
4 *51:2 0.0819
5 *51:3 0.0328
6 *51:4 0.0328
7 *51:5 0.0152
*RES
1 *5:A3 *51:5 0.005
2 *51:1 *18:ZN 0.005
3 *51:1 *51:2 0.007
4 *51:3 *51:2 0.005
5 *51:4 *51:3 0.0034
6 *51:5 *51:4 0.005
*END

*D_NET *52 0.1603
*CONN
*I *53:ZN O
*I *27:A2 I
*I *40:A2 I
*CAP
1 *53:ZN 0.0201
2 *27:A2 0.0076
3 *40:A2 0.0166
4 *52:1 0.037
5 *52:2 0.0393
6 *52:3 0.0209
7 *52:4 0.0187
*RES
1 *53:ZN *27:A2 0.001
2 *40:A2 *52:4 0.005
3 *52:1 *53:ZN 0.005
4 *52:1 *52:2 0.0045
5 *52:3 *52:2 0.001
6 *52:3 *52:4 0.001
*END

*D_NET *54 1.9602
*CONN
*I *55:Z O
*I *21:A I
*CAP
1 *55:Z 0.3845
2 *54:1 0.3056
3 *54:2 0.3464
4 *54:3 0.0305
5 *54:4 0.2383
6 *54:5 0.402
7 *21:A 0.2529
*RES
1 *55:Z *54:1 0.2665
2 *54:1 *54:2 0.4354
3 *54:2 *54:3 0.1977
4 *54:3 *54:4 0.0788
5 *54:4 *54:5 0.3276
6 *54:5 *21:A 0.3833
*END

*D_NET *56 1.3358
*CONN
*I *57:Z O
*I *35:A I
*CAP
1 *57:Z 0.3943
2 *56:1 0.1955
3 *56:2 0.1868
4 *56:3 0.4889
5 *35:A 0.0703
*RES
1 *57:Z *56:1 0.3298
2 *56:1 *56:2 0.4131
3 *56:2 *56:3 0.331
4 *56:3 *35:A 0.2621
*END

*D_NET *58 0.0143
*CONN
*I *33:ZN O
*I *53:A I
*CAP
1 *33:ZN 0.0072
2 *53:A 0.0072
*RES
1 *33:ZN *53:A 0.001
*END

*D_NET *59 2.0111
*CONN
*I *31:Z O
*I *57:A I
*CAP
1 *31:Z 0.47
2 *59:1 0.3545
3 *59:2 0.1033
4 *59:3 0.4316
5 *59:4 0.1782
6 *57:A 0.4734
*RES
1 *31:Z *59:1 0.0376
2 *59:1 *59:2 0.0972
3 *59:2 *59:3 0.3594
4 *59:3 *59:4 0.0525
5 *59:4 *57:A 0.3248
*END

*D_NET *60 1.4243
*CONN
*P *60 I
*I *7:A I
*I *17:A2 I
*I *39:A2 I
*CAP
1 *60 0.001
2 *7:A 0.0166
3 *17:A2 0.0166
4 *39:A2 0.0166
5 *60:1 0.2027
6 *60:2 0.1308
7 *60:3 0.1308
8 *60:4 0.0403
9 *60:5 0.0697
10 *60:6 0.0393
11 *60:7 0.0619
12 *60:8 0.0596
13 *60:9 0.0121
14 *60:10 0.0387
15 *60:11 0.0387
16 *60:12 0.0152
17 *60:13 0.1674
18 *60:14 0.1674
19 *60:15 0.1989
*RES
1 *60 *60:9 0.001
2 *60:1 *7:A 0.005
3 *60:1 *60:15 0.0205
4 *60:1 *60:2 0.005
5 *60:2 *60:3 0.0136
6 *60:3 *60:4 0.005
7 *60:5 *39:A2 0.005
8 *60:5 *60:4 0.003
9 *60:6 *60:5 0.0035
10 *60:6 *60:7 0.001
11 *60:8 *17:A2 0.005
12 *60:8 *60:7 0.004
13 *60:10 *60:9 0.005
14 *60:10 *60:11 0.0045
15 *60:12 *60:11 0.005
16 *60:13 *60:12 0.005
17 *60:13 *60:14 0.0176
18 *60:15 *60:14 0.005
*END

*D_NET *61 0.5504
*CONN
*I *2:ZN O
*I *33:A1 I
*CAP
1 *2:ZN 0.0166
2 *33:A1 0.0166
3 *61:1 0.0152
4 *61:2 0.2434
5 *61:3 0.2434
6 *61:4 0.0152
*RES
1 *33:A1 *61:4 0.005
2 *61:1 *2:ZN 0.005
3 *61:2 *61:1 0.005
4 *61:2 *61:3 0.017
5 *61:4 *61:3 0.005
*END

*D_NET *62 2.334
*CONN
*I *23:Z O
*I *47:A I
*I *55:A I
*CAP
1 *23:Z 0.1592
2 *62:1 0.2761
3 *62:2 0.3643
4 *62:3 0.2288
5 *62:4 0.0666
6 *47:A 0.3854
7 *62:5 0.4921
8 *62:6 0.1648
9 *62:7 0.1855
10 *55:A 0.0112
*RES
1 *23:Z *62:1 0.358
2 *62:1 *62:2 0.3774
3 *62:2 *62:3 0.2731
4 *62:3 *62:4 0.1525
5 *62:4 *47:A 0.0518
6 *62:3 *62:5 0.353
7 *62:5 *62:6 0.1128
8 *62:6 *62:7 0.2239
9 *62:7 *55:A 0.0917
*END

