*SPEF "IEEE 1481-1998"
*DESIGN "changes"
*DATE "Tue Dec 02 20:47:45 2014"
*VENDOR "TAU 2015 Contest"
*PROGRAM "Benchmark Parasitic Generator"
*VERSION "0.0"
*DESIGN_FLOW "NETLIST_TYPE_VERILOG"
*DIVIDER /
*DELIMITER :
*BUS_DELIMITER [ ]
*T_UNIT 1 PS
*C_UNIT 1 FF
*R_UNIT 1 KOHM
*L_UNIT 1 UH

*D_NET TAUNET_589 3.0173
*CONN
*I TAUGATE_407:Z O
*I TAUGATE_589:A I
*I inst_205:A1 I
*CAP
1 TAUGATE_407:Z 0.2611
2 TAUNET_589:1 0.4098
3 TAUNET_589:2 0.5009
4 TAUNET_589:3 0.2843
5 TAUGATE_589:A 0.2878
6 TAUNET_589:4 0.4685
7 TAUNET_589:5 0.3070
8 TAUNET_589:6 0.3583
9 inst_205:A1 0.1395
*RES
2 TAUGATE_407:Z TAUNET_589:1 0.1659
3 TAUNET_589:1 TAUNET_589:2 0.2742
4 TAUNET_589:2 TAUNET_589:3 0.3494
5 TAUNET_589:3 TAUGATE_589:A 0.1485
6 TAUNET_589:3 TAUNET_589:4 0.0646
7 TAUNET_589:4 TAUNET_589:5 0.0794
8 TAUNET_589:5 TAUNET_589:6 0.2161
9 TAUNET_589:6 inst_205:A1 0.1614
*END

*D_NET net_15 1.8183
*CONN
*I inst_386:ZN O
*I inst_51:A2 I
*CAP
1 inst_386:ZN 0.3755
2 net_15:1 0.4559
3 net_15:2 0.4050
4 net_15:3 0.0154
5 net_15:4 0.1670
6 net_15:5 0.1555
7 inst_51:A2 0.2440
*RES
2 inst_386:ZN net_15:1 0.0332
3 net_15:1 net_15:2 0.0406
4 net_15:2 net_15:3 0.2732
5 net_15:3 net_15:4 0.0073
6 net_15:4 net_15:5 0.1308
7 net_15:5 inst_51:A2 0.1374
*END

*D_NET TAUNET_71 1.3529
*CONN
*I TAUGATE_433:Z O
*I TAUGATE_71:A I
*CAP
1 TAUGATE_433:Z 0.3706
2 TAUNET_71:1 0.4871
3 TAUGATE_71:A 0.4951
*RES
2 TAUGATE_433:Z TAUNET_71:1 0.4125
3 TAUNET_71:1 TAUGATE_71:A 0.0565
*END

*D_NET net_436 5.0718
*CONN
*I inst_320:ZN O
*I inst_183:A2 I
*I inst_21:A2 I
*I inst_543:A I
*I inst_20:A2 I
*CAP
1 inst_320:ZN 0.0292
2 net_436:1 0.4507
3 net_436:2 0.3356
4 net_436:3 0.3995
5 inst_21:A2 0.3845
6 net_436:4 0.2529
7 net_436:5 0.2665
8 net_436:6 0.4354
9 net_436:7 0.1977
10 net_436:8 0.0788
11 inst_183:A2 0.3276
12 net_436:9 0.4017
13 net_436:10 0.4680
14 inst_543:A 0.2976
15 net_436:11 0.1868
16 net_436:12 0.4889
17 inst_20:A2 0.0703
*RES
2 inst_320:ZN net_436:1 0.4708
3 net_436:1 net_436:2 0.3056
4 net_436:2 net_436:3 0.3464
5 net_436:3 inst_21:A2 0.0305
6 net_436:2 net_436:4 0.3833
7 net_436:4 net_436:5 0.3292
8 net_436:5 net_436:6 0.0716
9 net_436:6 net_436:7 0.2236
10 net_436:7 net_436:8 0.1922
11 net_436:8 inst_183:A2 0.2805
12 net_436:2 net_436:9 0.2331
13 net_436:9 net_436:10 0.2927
14 net_436:10 inst_543:A 0.3943
15 net_436:5 net_436:11 0.3298
16 net_436:11 net_436:12 0.4131
17 net_436:12 inst_20:A2 0.3310
*END

*D_NET net_319 1.3534
*CONN
*I inst_289:ZN O
*I inst_304:A1 I
*CAP
1 inst_289:ZN 0.4792
2 net_319:1 0.0717
3 net_319:2 0.3990
4 inst_304:A1 0.4035
*RES
2 inst_289:ZN net_319:1 0.0219
3 net_319:1 net_319:2 0.0830
4 net_319:2 inst_304:A1 0.4539
*END

