*SPEF "IEEE 1481-1998"
*DESIGN "changes"
*DATE "Tue Dec 02 20:47:46 2014"
*VENDOR "TAU 2015 Contest"
*PROGRAM "Benchmark Parasitic Generator"
*VERSION "0.0"
*DESIGN_FLOW "NETLIST_TYPE_VERILOG"
*DIVIDER /
*DELIMITER :
*BUS_DELIMITER [ ]
*T_UNIT 1 PS
*C_UNIT 1 FF
*R_UNIT 1 KOHM
*L_UNIT 1 UH

*D_NET net_568 1.7439
*CONN
*I inst_125:ZN O
*I inst_339:A1 I
*CAP
1 inst_125:ZN 0.2611
2 net_568:1 0.4098
3 net_568:2 0.5009
4 net_568:3 0.2843
5 inst_339:A1 0.2878
*RES
2 inst_125:ZN net_568:1 0.1659
3 net_568:1 net_568:2 0.2742
4 net_568:2 net_568:3 0.3494
5 net_568:3 inst_339:A1 0.1485
*END

*D_NET net_435 1.3760
*CONN
*I inst_322:ZN O
*I inst_332:A2 I
*CAP
1 inst_322:ZN 0.2110
2 net_435:1 0.3070
3 net_435:2 0.3583
4 net_435:3 0.1395
5 net_435:4 0.0646
6 net_435:5 0.0794
7 inst_332:A2 0.2161
*RES
2 inst_322:ZN net_435:1 0.1614
3 net_435:1 net_435:2 0.3312
4 net_435:2 net_435:3 0.3755
5 net_435:3 net_435:4 0.4644
6 net_435:4 net_435:5 0.4559
7 net_435:5 inst_332:A2 0.4050
*END

*D_NET net_47 1.9117
*CONN
*I inst_418:ZN O
*I inst_432:A I
*I inst_138:A2 I
*CAP
1 inst_418:ZN 0.1670
2 net_47:1 0.2440
3 net_47:2 0.0332
4 inst_432:A 0.0406
5 net_47:3 0.3706
6 net_47:4 0.0740
7 net_47:5 0.4871
8 inst_138:A2 0.4951
*RES
2 inst_418:ZN net_47:1 0.2732
3 net_47:1 net_47:2 0.0073
4 net_47:2 inst_432:A 0.1308
5 net_47:1 net_47:3 0.4125
6 net_47:3 net_47:4 0.0565
7 net_47:4 net_47:5 0.1285
8 net_47:5 inst_138:A2 0.0292
*END

*D_NET net_176 2.3577
*CONN
*I inst_346:Z O
*I inst_16:A2 I
*CAP
1 inst_346:Z 0.4507
2 net_176:1 0.3995
3 net_176:2 0.3845
4 net_176:3 0.4708
5 net_176:4 0.3056
6 inst_16:A2 0.3464
*RES
2 inst_346:Z net_176:1 0.0305
3 net_176:1 net_176:2 0.2383
4 net_176:2 net_176:3 0.4020
5 net_176:3 net_176:4 0.2529
6 net_176:4 inst_16:A2 0.2665
*END

*D_NET net_416 4.6532
*CONN
*I TAUGATE_273:Z O
*I inst_88:A1 I
*I inst_172:A1 I
*I inst_25:A2 I
*I inst_85:A1 I
*I inst_284:A1 I
*CAP
1 TAUGATE_273:Z 0.1977
2 net_416:1 0.3276
3 inst_284:A1 0.3833
4 net_416:2 0.2805
5 net_416:3 0.1322
6 inst_172:A1 0.1905
7 net_416:4 0.2211
8 net_416:5 0.1955
9 net_416:6 0.1868
10 net_416:7 0.4889
11 inst_25:A2 0.0703
12 net_416:8 0.3990
13 inst_85:A1 0.4035
14 net_416:9 0.3196
15 net_416:10 0.4976
16 inst_88:A1 0.3591
*RES
2 TAUGATE_273:Z net_416:1 0.3292
3 net_416:1 inst_284:A1 0.0716
4 net_416:1 net_416:2 0.4017
5 net_416:2 net_416:3 0.4680
6 net_416:3 inst_172:A1 0.2976
7 net_416:2 net_416:4 0.3298
8 net_416:4 net_416:5 0.4131
9 net_416:5 net_416:6 0.3310
10 net_416:6 net_416:7 0.2621
11 net_416:7 inst_25:A2 0.4792
12 net_416:2 net_416:8 0.0219
13 net_416:8 inst_85:A1 0.0830
14 net_416:8 net_416:9 0.2780
15 net_416:9 net_416:10 0.2022
16 net_416:10 inst_88:A1 0.1593
*END

*D_NET net_137 3.4996
*CONN
*I inst_52:ZN O
*I inst_578:A2 I
*I inst_26:A2 I
*CAP
1 inst_52:ZN 0.3498
2 net_137:1 0.4519
3 net_137:2 0.4658
4 net_137:3 0.3690
5 net_137:4 0.4019
6 net_137:5 0.0632
7 inst_26:A2 0.2503
8 net_137:6 0.0525
9 net_137:7 0.3248
10 net_137:8 0.2597
11 net_137:9 0.1267
12 inst_578:A2 0.3840
*RES
2 inst_52:ZN net_137:1 0.4700
3 net_137:1 net_137:2 0.3789
4 net_137:2 net_137:3 0.3545
5 net_137:3 net_137:4 0.1033
6 net_137:4 net_137:5 0.4316
7 net_137:5 inst_26:A2 0.1782
8 net_137:1 net_137:6 0.2434
9 net_137:6 net_137:7 0.3726
10 net_137:7 net_137:8 0.2980
11 net_137:8 net_137:9 0.2454
12 net_137:9 inst_578:A2 0.4670
*END

*D_NET net_132 2.2362
*CONN
*I TAUGATE_407:Z O
*I inst_75:A2 I
*I inst_205:A1 I
*CAP
1 TAUGATE_407:Z 0.1376
2 net_132:1 0.1288
3 net_132:2 0.3022
4 net_132:3 0.1405
5 net_132:4 0.0668
6 net_132:5 0.3699
7 inst_75:A2 0.4131
8 net_132:6 0.2034
9 net_132:7 0.1592
10 inst_205:A1 0.3147
*RES
2 TAUGATE_407:Z net_132:1 0.4004
3 net_132:1 net_132:2 0.4814
4 net_132:2 net_132:3 0.1341
5 net_132:3 net_132:4 0.3915
6 net_132:4 net_132:5 0.0282
7 net_132:5 inst_75:A2 0.3089
8 net_132:4 net_132:6 0.2761
9 net_132:6 net_132:7 0.3643
10 net_132:7 inst_205:A1 0.2288
*END

*D_NET G546 1.4950
*CONN
*I inst_563:QN O
*P G546 O
*CAP
1 inst_563:QN 0.3854
2 G546:1 0.3774
3 G546:2 0.2731
4 G546:3 0.1525
5 G546:4 0.0518
6 G546 0.2548
*RES
2 inst_563:QN G546:1 0.2154
3 G546:1 G546:2 0.4921
4 G546:2 G546:3 0.1648
5 G546:3 G546:4 0.1855
6 G546:4 G546 0.0112
*END

*D_NET net_429 1.1059
*CONN
*I inst_190:ZN O
*I inst_125:A2 I
*CAP
1 inst_190:ZN 0.1128
2 net_429:1 0.0917
3 net_429:2 0.4230
4 net_429:3 0.1494
5 inst_125:A2 0.3290
*RES
2 inst_190:ZN net_429:1 0.1620
3 net_429:1 net_429:2 0.0029
4 net_429:2 net_429:3 0.2883
5 net_429:3 inst_125:A2 0.1903
*END

*D_NET net_129 0.6766
*CONN
*I inst_64:ZN O
*I inst_88:A2 I
*CAP
1 inst_64:ZN 0.3484
2 net_129:1 0.1392
3 inst_88:A2 0.1891
*RES
2 inst_64:ZN net_129:1 0.0464
3 net_129:1 inst_88:A2 0.0364
*END

*D_NET net_12 0.6214
*CONN
*I inst_552:Q O
*I inst_105:A2 I
*CAP
1 inst_552:Q 0.4104
2 net_12:1 0.0510
3 inst_105:A2 0.1600
*RES
2 inst_552:Q net_12:1 0.1748
3 net_12:1 inst_105:A2 0.4787
*END

*D_NET net_151 1.6741
*CONN
*I inst_70:ZN O
*I inst_159:A1 I
*CAP
1 inst_70:ZN 0.4606
2 net_151:1 0.4657
3 net_151:2 0.3595
4 net_151:3 0.2471
5 net_151:4 0.0832
6 inst_159:A1 0.0580
*RES
2 inst_70:ZN net_151:1 0.3736
3 net_151:1 net_151:2 0.0395
4 net_151:2 net_151:3 0.3644
5 net_151:3 net_151:4 0.0829
6 net_151:4 inst_159:A1 0.1977
*END

*D_NET net_356 2.1119
*CONN
*I inst_299:ZN O
*I inst_130:A2 I
*CAP
1 inst_299:ZN 0.3877
2 net_356:1 0.4950
3 net_356:2 0.0413
4 net_356:3 0.4651
5 net_356:4 0.4065
6 inst_130:A2 0.3164
*RES
2 inst_299:ZN net_356:1 0.3513
3 net_356:1 net_356:2 0.1165
4 net_356:2 net_356:3 0.0986
5 net_356:3 net_356:4 0.2243
6 net_356:4 inst_130:A2 0.1286
*END

*D_NET net_53 1.4306
*CONN
*I inst_437:ZN O
*I inst_134:A1 I
*CAP
1 inst_437:ZN 0.2482
2 net_53:1 0.1533
3 net_53:2 0.4091
4 net_53:3 0.2613
5 inst_134:A1 0.3587
*RES
2 inst_437:ZN net_53:1 0.1869
3 net_53:1 net_53:2 0.4974
4 net_53:2 net_53:3 0.3047
5 net_53:3 inst_134:A1 0.1200
*END

*D_NET net_93 0.5270
*CONN
*I inst_128:ZN O
*I inst_206:A1 I
*CAP
1 inst_128:ZN 0.1210
2 net_93:1 0.1014
3 net_93:2 0.0283
4 inst_206:A1 0.2763
*RES
2 inst_128:ZN net_93:1 0.2945
3 net_93:1 net_93:2 0.3177
4 net_93:2 inst_206:A1 0.2101
*END

*D_NET net_452 1.4286
*CONN
*I inst_179:ZN O
*I inst_340:A1 I
*CAP
1 inst_179:ZN 0.2046
2 net_452:1 0.1317
3 net_452:2 0.3617
4 net_452:3 0.0856
5 net_452:4 0.3629
6 inst_340:A1 0.2821
*RES
2 inst_179:ZN net_452:1 0.3900
3 net_452:1 net_452:2 0.0557
4 net_452:2 net_452:3 0.1253
5 net_452:3 net_452:4 0.2716
6 net_452:4 inst_340:A1 0.3735
*END

*D_NET net_284 1.5454
*CONN
*I inst_581:ZN O
*I inst_32:A1 I
*CAP
1 inst_581:ZN 0.3323
2 net_284:1 0.0362
3 net_284:2 0.4966
4 net_284:3 0.4101
5 inst_32:A1 0.2702
*RES
2 inst_581:ZN net_284:1 0.2135
3 net_284:1 net_284:2 0.0419
4 net_284:2 net_284:3 0.2773
5 net_284:3 inst_32:A1 0.0903
*END

*D_NET TAUNET_71 2.3457
*CONN
*P blif_reset_net I
*I TAUGATE_71:A I
*CAP
1 blif_reset_net 0.4602
2 TAUNET_71:1 0.2009
3 TAUNET_71:2 0.3114
4 TAUNET_71:3 0.3090
5 TAUNET_71:4 0.3972
6 TAUNET_71:5 0.4228
7 TAUGATE_71:A 0.2443
*RES
2 blif_reset_net TAUNET_71:1 0.2458
3 TAUNET_71:1 TAUNET_71:2 0.3734
4 TAUNET_71:2 TAUNET_71:3 0.1567
5 TAUNET_71:3 TAUNET_71:4 0.1247
6 TAUNET_71:4 TAUNET_71:5 0.2439
7 TAUNET_71:5 TAUGATE_71:A 0.2588
*END

*D_NET net_302 2.1947
*CONN
*I inst_468:ZN O
*I inst_97:A1 I
*I inst_178:A1 I
*I inst_308:A1 I
*CAP
1 inst_468:ZN 0.3528
2 net_302:1 0.4436
3 inst_308:A1 0.1981
4 net_302:2 0.0423
5 inst_178:A1 0.2861
6 net_302:3 0.0209
7 net_302:4 0.4380
8 inst_97:A1 0.4130
*RES
2 inst_468:ZN net_302:1 0.3275
3 net_302:1 inst_308:A1 0.0169
4 net_302:1 net_302:2 0.4278
5 net_302:2 inst_178:A1 0.3875
6 net_302:2 net_302:3 0.4990
7 net_302:3 net_302:4 0.2134
8 net_302:4 inst_97:A1 0.1115
*END

*D_NET net_439 1.6629
*CONN
*I inst_323:ZN O
*I inst_180:A3 I
*CAP
1 inst_323:ZN 0.3666
2 net_439:1 0.4464
3 net_439:2 0.2438
4 net_439:3 0.2969
5 inst_180:A3 0.3091
*RES
2 inst_323:ZN net_439:1 0.5006
3 net_439:1 net_439:2 0.2264
4 net_439:2 net_439:3 0.3973
5 net_439:3 inst_180:A3 0.2044
*END

*D_NET net_477 1.5866
*CONN
*I inst_389:ZN O
*I inst_40:A2 I
*CAP
1 inst_389:ZN 0.3886
2 net_477:1 0.2468
3 net_477:2 0.4002
4 net_477:3 0.3652
5 inst_40:A2 0.1857
*RES
2 inst_389:ZN net_477:1 0.0562
3 net_477:1 net_477:2 0.0882
4 net_477:2 net_477:3 0.4386
5 net_477:3 inst_40:A2 0.2715
*END

*D_NET net_259 2.2528
*CONN
*I inst_258:ZN O
*I inst_91:A2 I
*I inst_176:A2 I
*CAP
1 inst_258:ZN 0.4145
2 net_259:1 0.1130
3 net_259:2 0.1026
4 inst_91:A2 0.1939
5 net_259:3 0.1138
6 net_259:4 0.4033
7 net_259:5 0.3663
8 net_259:6 0.2540
9 net_259:7 0.0526
10 inst_176:A2 0.2388
*RES
2 inst_258:ZN net_259:1 0.1095
3 net_259:1 net_259:2 0.0212
4 net_259:2 inst_91:A2 0.1417
5 net_259:1 net_259:3 0.1787
6 net_259:3 net_259:4 0.3603
7 net_259:4 net_259:5 0.0603
8 net_259:5 net_259:6 0.0863
9 net_259:6 net_259:7 0.3102
10 net_259:7 inst_176:A2 0.1239
*END

*D_NET net_385 1.6234
*CONN
*I inst_162:ZN O
*I inst_180:A2 I
*CAP
1 inst_162:ZN 0.0055
2 net_385:1 0.2412
3 net_385:2 0.3995
4 net_385:3 0.4441
5 net_385:4 0.4218
6 net_385:5 0.0848
7 inst_180:A2 0.0266
*RES
2 inst_162:ZN net_385:1 0.0274
3 net_385:1 net_385:2 0.4218
4 net_385:2 net_385:3 0.2061
5 net_385:3 net_385:4 0.2110
6 net_385:4 net_385:5 0.4583
7 net_385:5 inst_180:A2 0.3985
*END

*D_NET net_269 1.9898
*CONN
*I inst_30:ZN O
*I inst_6:A3 I
*CAP
1 inst_30:ZN 0.0725
2 net_269:1 0.3124
3 net_269:2 0.3685
4 net_269:3 0.4317
5 net_269:4 0.1801
6 net_269:5 0.2826
7 inst_6:A3 0.3420
*RES
2 inst_30:ZN net_269:1 0.0965
3 net_269:1 net_269:2 0.2555
4 net_269:2 net_269:3 0.1304
5 net_269:3 net_269:4 0.3675
6 net_269:4 net_269:5 0.4634
7 net_269:5 inst_6:A3 0.2869
*END

*D_NET net_548 7.6516
*CONN
*P G6 I
*I inst_155:A3 I
*I inst_515:A I
*I inst_236:A1 I
*I inst_250:A1 I
*I inst_229:A1 I
*I inst_372:A I
*I inst_102:A2 I
*I inst_239:A1 I
*I inst_568:A2 I
*CAP
1 G6 0.1182
2 net_548:1 0.0608
3 inst_236:A1 0.3721
4 net_548:2 0.0264
5 net_548:3 0.2502
6 inst_515:A 0.2506
7 net_548:4 0.1704
8 net_548:5 0.2303
9 net_548:6 0.0121
10 inst_155:A3 0.0620
11 net_548:7 0.3195
12 net_548:8 0.4748
13 net_548:9 0.2505
14 net_548:10 0.2036
15 net_548:11 0.3990
16 inst_250:A1 0.0185
17 net_548:12 0.0406
18 net_548:13 0.0917
19 net_548:14 0.0078
20 inst_229:A1 0.0227
21 net_548:15 0.3987
22 net_548:16 0.0209
23 net_548:17 0.1182
24 inst_372:A 0.1067
25 net_548:18 0.2979
26 net_548:19 0.3428
27 net_548:20 0.2325
28 net_548:21 0.2733
29 net_548:22 0.1266
30 inst_102:A2 0.3814
31 net_548:23 0.4527
32 net_548:24 0.1465
33 inst_239:A1 0.1463
34 net_548:25 0.0715
35 net_548:26 0.1546
36 net_548:27 0.1861
37 net_548:28 0.4367
38 net_548:29 0.3452
39 inst_568:A2 0.0313
*RES
2 G6 net_548:1 0.4648
3 net_548:1 inst_236:A1 0.2376
4 net_548:1 net_548:2 0.4486
5 net_548:2 net_548:3 0.0641
6 net_548:3 inst_515:A 0.0138
7 net_548:1 net_548:4 0.0267
8 net_548:4 net_548:5 0.1278
9 net_548:5 net_548:6 0.1079
10 net_548:6 inst_155:A3 0.3621
11 net_548:4 net_548:7 0.3777
12 net_548:7 net_548:8 0.2437
13 net_548:8 net_548:9 0.3641
14 net_548:9 net_548:10 0.1411
15 net_548:10 net_548:11 0.2452
16 net_548:11 inst_250:A1 0.2723
17 net_548:4 net_548:12 0.0264
18 net_548:12 net_548:13 0.0174
19 net_548:13 net_548:14 0.1906
20 net_548:14 inst_229:A1 0.1553
21 net_548:2 net_548:15 0.4881
22 net_548:15 net_548:16 0.3672
23 net_548:16 net_548:17 0.4629
24 net_548:17 inst_372:A 0.1157
25 net_548:7 net_548:18 0.1363
26 net_548:18 net_548:19 0.3277
27 net_548:19 net_548:20 0.3144
28 net_548:20 net_548:21 0.4503
29 net_548:21 net_548:22 0.3676
30 net_548:22 inst_102:A2 0.1603
31 net_548:20 net_548:23 0.4621
32 net_548:23 net_548:24 0.4065
33 net_548:24 inst_239:A1 0.0227
34 net_548:11 net_548:25 0.1217
35 net_548:25 net_548:26 0.0111
36 net_548:26 net_548:27 0.1222
37 net_548:27 net_548:28 0.0613
38 net_548:28 net_548:29 0.1692
39 net_548:29 inst_568:A2 0.4407
*END

*D_NET net_469 1.3881
*CONN
*I inst_558:Q O
*I inst_131:A3 I
*CAP
1 inst_558:Q 0.2563
2 net_469:1 0.2603
3 net_469:2 0.2874
4 net_469:3 0.3072
5 inst_131:A3 0.2768
*RES
2 inst_558:Q net_469:1 0.1679
3 net_469:1 net_469:2 0.2053
4 net_469:2 net_469:3 0.2140
5 net_469:3 inst_131:A3 0.3306
*END

*D_NET net_111 2.0736
*CONN
*I inst_239:ZN O
*I inst_251:A2 I
*CAP
1 inst_239:ZN 0.2580
2 net_111:1 0.4796
3 net_111:2 0.3806
4 net_111:3 0.4946
5 inst_251:A2 0.4608
*RES
2 inst_239:ZN net_111:1 0.4692
3 net_111:1 net_111:2 0.4766
4 net_111:2 net_111:3 0.0589
5 net_111:3 inst_251:A2 0.0962
*END

*D_NET net_264 1.3235
*CONN
*I inst_0:ZN O
*I inst_551:D I
*CAP
1 inst_0:ZN 0.1750
2 net_264:1 0.0845
3 net_264:2 0.1888
4 net_264:3 0.1436
5 net_264:4 0.1762
6 net_264:5 0.4748
7 inst_551:D 0.0806
*RES
2 inst_0:ZN net_264:1 0.0407
3 net_264:1 net_264:2 0.2069
4 net_264:2 net_264:3 0.0491
5 net_264:3 net_264:4 0.4137
6 net_264:4 net_264:5 0.3046
7 net_264:5 inst_551:D 0.2987
*END

*D_NET net_225 1.6284
*CONN
*I inst_265:ZN O
*I inst_279:A2 I
*CAP
1 inst_265:ZN 0.1831
2 net_225:1 0.0191
3 net_225:2 0.3538
4 net_225:3 0.4300
5 net_225:4 0.3629
6 net_225:5 0.0787
7 inst_279:A2 0.2007
*RES
2 inst_265:ZN net_225:1 0.2971
3 net_225:1 net_225:2 0.4025
4 net_225:2 net_225:3 0.5010
5 net_225:3 net_225:4 0.3538
6 net_225:4 net_225:5 0.4649
7 net_225:5 inst_279:A2 0.0482
*END

*D_NET TAUNET_141 6.0663
*CONN
*P G5 I
*I TAUGATE_141:A I
*I inst_193:A1 I
*I inst_39:A2 I
*I inst_219:A2 I
*I inst_221:A2 I
*CAP
1 G5 0.2963
2 TAUNET_141:1 0.2002
3 TAUNET_141:2 0.2573
4 TAUNET_141:3 0.3761
5 TAUNET_141:4 0.0616
6 TAUNET_141:5 0.4298
7 inst_193:A1 0.2857
8 TAUNET_141:6 0.1731
9 TAUGATE_141:A 0.2737
10 TAUNET_141:7 0.3461
11 TAUNET_141:8 0.3729
12 TAUNET_141:9 0.0418
13 inst_39:A2 0.3671
14 TAUNET_141:10 0.1379
15 TAUNET_141:11 0.1139
16 TAUNET_141:12 0.0489
17 TAUNET_141:13 0.0861
18 TAUNET_141:14 0.1477
19 inst_219:A2 0.4806
20 TAUNET_141:15 0.1906
21 TAUNET_141:16 0.5003
22 TAUNET_141:17 0.4347
23 TAUNET_141:18 0.3044
24 inst_221:A2 0.1394
*RES
2 G5 TAUNET_141:1 0.2634
3 TAUNET_141:1 TAUNET_141:2 0.0470
4 TAUNET_141:2 TAUNET_141:3 0.0745
5 TAUNET_141:3 TAUNET_141:4 0.1738
6 TAUNET_141:4 TAUNET_141:5 0.4336
7 TAUNET_141:5 inst_193:A1 0.4556
8 TAUNET_141:1 TAUNET_141:6 0.3095
9 TAUNET_141:6 TAUGATE_141:A 0.4895
10 TAUNET_141:6 TAUNET_141:7 0.3815
11 TAUNET_141:7 TAUNET_141:8 0.1458
12 TAUNET_141:8 TAUNET_141:9 0.4915
13 TAUNET_141:9 inst_39:A2 0.0683
14 TAUNET_141:5 TAUNET_141:10 0.3473
15 TAUNET_141:10 TAUNET_141:11 0.1114
16 TAUNET_141:11 TAUNET_141:12 0.0198
17 TAUNET_141:12 TAUNET_141:13 0.2366
18 TAUNET_141:13 TAUNET_141:14 0.1100
19 TAUNET_141:14 inst_219:A2 0.2818
20 TAUNET_141:13 TAUNET_141:15 0.0096
21 TAUNET_141:15 TAUNET_141:16 0.4963
22 TAUNET_141:16 TAUNET_141:17 0.2377
23 TAUNET_141:17 TAUNET_141:18 0.2571
24 TAUNET_141:18 inst_221:A2 0.3610
*END

*D_NET net_283 2.2596
*CONN
*I inst_207:ZN O
*I inst_277:A2 I
*I inst_581:A2 I
*CAP
1 inst_207:ZN 0.2690
2 net_283:1 0.3400
3 net_283:2 0.2352
4 net_283:3 0.3112
5 net_283:4 0.1345
6 inst_277:A2 0.4134
7 net_283:5 0.2112
8 net_283:6 0.2343
9 inst_581:A2 0.1106
*RES
2 inst_207:ZN net_283:1 0.0741
3 net_283:1 net_283:2 0.4290
4 net_283:2 net_283:3 0.4891
5 net_283:3 net_283:4 0.0621
6 net_283:4 inst_277:A2 0.2122
7 net_283:2 net_283:5 0.0283
8 net_283:5 net_283:6 0.2644
9 net_283:6 inst_581:A2 0.3395
*END

*D_NET TAUNET_684 2.8992
*CONN
*I TAUGATE_495:Z O
*I TAUGATE_684:A I
*I inst_42:A2 I
*I inst_227:A1 I
*I inst_233:A1 I
*CAP
1 TAUGATE_495:Z 0.1311
2 TAUNET_684:1 0.0535
3 TAUNET_684:2 0.0383
4 inst_233:A1 0.2939
5 TAUNET_684:3 0.1825
6 TAUNET_684:4 0.4154
7 TAUNET_684:5 0.4205
8 inst_42:A2 0.1921
9 TAUNET_684:6 0.3586
10 inst_227:A1 0.1804
11 TAUNET_684:7 0.2910
12 TAUGATE_684:A 0.3418
*RES
2 TAUGATE_495:Z TAUNET_684:1 0.2177
3 TAUNET_684:1 TAUNET_684:2 0.0520
4 TAUNET_684:2 inst_233:A1 0.1787
5 TAUNET_684:2 TAUNET_684:3 0.3303
6 TAUNET_684:3 TAUNET_684:4 0.0500
7 TAUNET_684:4 TAUNET_684:5 0.3450
8 TAUNET_684:5 inst_42:A2 0.2552
9 TAUNET_684:5 TAUNET_684:6 0.2132
10 TAUNET_684:6 inst_227:A1 0.3448
11 TAUNET_684:4 TAUNET_684:7 0.0277
12 TAUNET_684:7 TAUGATE_684:A 0.2232
*END

*D_NET net_412 0.7059
*CONN
*I inst_316:ZN O
*I inst_180:A1 I
*CAP
1 inst_316:ZN 0.3825
2 net_412:1 0.0258
3 net_412:2 0.0722
4 net_412:3 0.0268
5 net_412:4 0.0274
6 net_412:5 0.0955
7 inst_180:A1 0.0758
*RES
2 inst_316:ZN net_412:1 0.0730
3 net_412:1 net_412:2 0.2996
4 net_412:2 net_412:3 0.1500
5 net_412:3 net_412:4 0.2720
6 net_412:4 net_412:5 0.0605
7 net_412:5 inst_180:A1 0.1555
*END

*D_NET net_85 2.4459
*CONN
*I inst_227:ZN O
*I inst_57:A2 I
*I inst_45:A2 I
*CAP
1 inst_227:ZN 0.2976
2 net_85:1 0.0316
3 net_85:2 0.1823
4 net_85:3 0.0755
5 net_85:4 0.3163
6 inst_45:A2 0.3515
7 net_85:5 0.0188
8 net_85:6 0.4709
9 net_85:7 0.4204
10 net_85:8 0.0122
11 inst_57:A2 0.2688
*RES
2 inst_227:ZN net_85:1 0.2983
3 net_85:1 net_85:2 0.4269
4 net_85:2 net_85:3 0.0493
5 net_85:3 net_85:4 0.0341
6 net_85:4 inst_45:A2 0.3020
7 net_85:4 net_85:5 0.0936
8 net_85:5 net_85:6 0.3051
9 net_85:6 net_85:7 0.1197
10 net_85:7 net_85:8 0.2956
11 net_85:8 inst_57:A2 0.2210
*END

*D_NET net_252 1.0352
*CONN
*I inst_270:ZN O
*I inst_190:A2 I
*CAP
1 inst_270:ZN 0.2798
2 net_252:1 0.0137
3 net_252:2 0.2108
4 net_252:3 0.3101
5 net_252:4 0.0161
6 inst_190:A2 0.2047
*RES
2 inst_270:ZN net_252:1 0.3729
3 net_252:1 net_252:2 0.0610
4 net_252:2 net_252:3 0.4010
5 net_252:3 net_252:4 0.2910
6 net_252:4 inst_190:A2 0.3768
*END

*D_NET net_343 1.4722
*CONN
*I inst_103:ZN O
*I inst_106:A2 I
*CAP
1 inst_103:ZN 0.1250
2 net_343:1 0.3715
3 net_343:2 0.3144
4 net_343:3 0.3618
5 net_343:4 0.0820
6 inst_106:A2 0.2174
*RES
2 inst_103:ZN net_343:1 0.3638
3 net_343:1 net_343:2 0.4097
4 net_343:2 net_343:3 0.2418
5 net_343:3 net_343:4 0.4080
6 net_343:4 inst_106:A2 0.3118
*END

*D_NET net_455 1.5302
*CONN
*I inst_335:ZN O
*I inst_338:A2 I
*CAP
1 inst_335:ZN 0.3134
2 net_455:1 0.1396
3 net_455:2 0.0910
4 net_455:3 0.1278
5 net_455:4 0.3093
6 net_455:5 0.3342
7 inst_338:A2 0.2150
*RES
2 inst_335:ZN net_455:1 0.0109
3 net_455:1 net_455:2 0.1830
4 net_455:2 net_455:3 0.2298
5 net_455:3 net_455:4 0.0712
6 net_455:4 net_455:5 0.0044
7 net_455:5 inst_338:A2 0.1986
*END

*D_NET TAUNET_49 0.3301
*CONN
*I inst_142:ZN O
*I TAUGATE_49:A I
*CAP
1 inst_142:ZN 0.0521
2 TAUNET_49:1 0.0043
3 TAUGATE_49:A 0.2737
*RES
2 inst_142:ZN TAUNET_49:1 0.4724
3 TAUNET_49:1 TAUGATE_49:A 0.2677
*END

*D_NET net_404 1.0280
*CONN
*I inst_168:ZN O
*I inst_186:A1 I
*CAP
1 inst_168:ZN 0.1466
2 net_404:1 0.2008
3 net_404:2 0.3776
4 net_404:3 0.2937
5 inst_186:A1 0.0093
*RES
2 inst_168:ZN net_404:1 0.2822
3 net_404:1 net_404:2 0.4311
4 net_404:2 net_404:3 0.0309
5 net_404:3 inst_186:A1 0.1138
*END

*D_NET TAUNET_474 4.2487
*CONN
*I inst_369:ZN O
*I TAUGATE_474:A I
*I inst_370:A I
*I inst_275:A1 I
*I inst_519:A I
*CAP
1 inst_369:ZN 0.3567
2 TAUNET_474:1 0.2336
3 TAUNET_474:2 0.3863
4 TAUNET_474:3 0.2365
5 TAUNET_474:4 0.1037
6 inst_519:A 0.3572
7 TAUNET_474:5 0.4262
8 TAUNET_474:6 0.3737
9 TAUNET_474:7 0.3015
10 inst_370:A 0.1830
11 TAUNET_474:8 0.4263
12 inst_275:A1 0.2912
13 TAUNET_474:9 0.0984
14 TAUNET_474:10 0.0368
15 TAUGATE_474:A 0.4376
*RES
2 inst_369:ZN TAUNET_474:1 0.2211
3 TAUNET_474:1 TAUNET_474:2 0.2185
4 TAUNET_474:2 TAUNET_474:3 0.2266
5 TAUNET_474:3 TAUNET_474:4 0.2538
6 TAUNET_474:4 inst_519:A 0.1297
7 TAUNET_474:2 TAUNET_474:5 0.3035
8 TAUNET_474:5 TAUNET_474:6 0.4053
9 TAUNET_474:6 TAUNET_474:7 0.0863
10 TAUNET_474:7 inst_370:A 0.2362
11 TAUNET_474:2 TAUNET_474:8 0.1111
12 TAUNET_474:8 inst_275:A1 0.3711
13 TAUNET_474:1 TAUNET_474:9 0.1423
14 TAUNET_474:9 TAUNET_474:10 0.1283
15 TAUNET_474:10 TAUGATE_474:A 0.1146
*END

*D_NET net_160 4.4857
*CONN
*I inst_451:ZN O
*I inst_81:A2 I
*I inst_479:A I
*I inst_143:A3 I
*I inst_42:A1 I
*CAP
1 inst_451:ZN 0.4610
2 net_160:1 0.2776
3 net_160:2 0.3781
4 net_160:3 0.3766
5 net_160:4 0.0185
6 net_160:5 0.3877
7 inst_143:A3 0.1588
8 net_160:6 0.1158
9 net_160:7 0.1153
10 net_160:8 0.3810
11 net_160:9 0.1100
12 net_160:10 0.1662
13 inst_479:A 0.3178
14 net_160:11 0.2326
15 inst_81:A2 0.0121
16 net_160:12 0.1970
17 net_160:13 0.0138
18 net_160:14 0.4527
19 inst_42:A1 0.3131
*RES
2 inst_451:ZN net_160:1 0.3738
3 net_160:1 net_160:2 0.4556
4 net_160:2 net_160:3 0.1835
5 net_160:3 net_160:4 0.0020
6 net_160:4 net_160:5 0.2614
7 net_160:5 inst_143:A3 0.3010
8 net_160:3 net_160:6 0.2541
9 net_160:6 net_160:7 0.2497
10 net_160:7 net_160:8 0.4625
11 net_160:8 net_160:9 0.2343
12 net_160:9 net_160:10 0.0981
13 net_160:10 inst_479:A 0.3461
14 net_160:9 net_160:11 0.2674
15 net_160:11 inst_81:A2 0.2072
16 net_160:1 net_160:12 0.4392
17 net_160:12 net_160:13 0.4048
18 net_160:13 net_160:14 0.0368
19 net_160:14 inst_42:A1 0.3283
*END

*D_NET TAUNET_231 1.5830
*CONN
*I inst_56:ZN O
*I TAUGATE_231:A I
*CAP
1 inst_56:ZN 0.4199
2 TAUNET_231:1 0.3306
3 TAUNET_231:2 0.3042
4 TAUNET_231:3 0.1317
5 TAUNET_231:4 0.1481
6 TAUGATE_231:A 0.2485
*RES
2 inst_56:ZN TAUNET_231:1 0.2201
3 TAUNET_231:1 TAUNET_231:2 0.2966
4 TAUNET_231:2 TAUNET_231:3 0.3013
5 TAUNET_231:3 TAUNET_231:4 0.0758
6 TAUNET_231:4 TAUGATE_231:A 0.0262
*END

*D_NET net_393 1.7561
*CONN
*I inst_574:ZN O
*I inst_309:A1 I
*I inst_310:A1 I
*CAP
1 inst_574:ZN 0.0656
2 net_393:1 0.0047
3 net_393:2 0.1418
4 inst_310:A1 0.2138
5 net_393:3 0.0320
6 net_393:4 0.2786
7 net_393:5 0.3378
8 net_393:6 0.4364
9 inst_309:A1 0.2454
*RES
2 inst_574:ZN net_393:1 0.3805
3 net_393:1 net_393:2 0.2523
4 net_393:2 inst_310:A1 0.0497
5 net_393:1 net_393:3 0.4527
6 net_393:3 net_393:4 0.2663
7 net_393:4 net_393:5 0.3641
8 net_393:5 net_393:6 0.1740
9 net_393:6 inst_309:A1 0.2701
*END

*D_NET net_442 2.9233
*CONN
*I inst_567:ZN O
*I inst_328:A2 I
*I inst_217:A1 I
*CAP
1 inst_567:ZN 0.4105
2 net_442:1 0.3665
3 net_442:2 0.1341
4 net_442:3 0.0859
5 inst_217:A1 0.1706
6 net_442:4 0.1840
7 net_442:5 0.4010
8 net_442:6 0.3573
9 net_442:7 0.4559
10 inst_328:A2 0.3575
*RES
2 inst_567:ZN net_442:1 0.3812
3 net_442:1 net_442:2 0.0751
4 net_442:2 net_442:3 0.1227
5 net_442:3 inst_217:A1 0.0294
6 net_442:3 net_442:4 0.1715
7 net_442:4 net_442:5 0.3050
8 net_442:5 net_442:6 0.3594
9 net_442:6 net_442:7 0.4902
10 net_442:7 inst_328:A2 0.4716
*END

*D_NET TAUNET_398 0.8507
*CONN
*I TAUGATE_86:Z O
*I TAUGATE_398:A I
*CAP
1 TAUGATE_86:Z 0.1762
2 TAUNET_398:1 0.1660
3 TAUNET_398:2 0.2177
4 TAUGATE_398:A 0.2908
*RES
2 TAUGATE_86:Z TAUNET_398:1 0.3318
3 TAUNET_398:1 TAUNET_398:2 0.3308
4 TAUNET_398:2 TAUGATE_398:A 0.4080
*END

*D_NET net_420 6.6776
*CONN
*I inst_46:ZN O
*I inst_574:A1 I
*I inst_166:A2 I
*I inst_162:A2 I
*I inst_173:A2 I
*I inst_583:A1 I
*I inst_318:A1 I
*CAP
1 inst_46:ZN 0.1932
2 net_420:1 0.0053
3 inst_318:A1 0.1459
4 net_420:2 0.4574
5 net_420:3 0.4683
6 net_420:4 0.1543
7 net_420:5 0.4873
8 inst_166:A2 0.1669
9 net_420:6 0.4210
10 net_420:7 0.2594
11 net_420:8 0.3565
12 inst_162:A2 0.4074
13 net_420:9 0.3870
14 net_420:10 0.3663
15 net_420:11 0.1512
16 net_420:12 0.1368
17 inst_173:A2 0.4493
18 net_420:13 0.0401
19 net_420:14 0.2861
20 net_420:15 0.1883
21 net_420:16 0.3075
22 net_420:17 0.0604
23 inst_583:A1 0.3908
24 net_420:18 0.0492
25 net_420:19 0.2707
26 inst_574:A1 0.0711
*RES
2 inst_46:ZN net_420:1 0.0437
3 net_420:1 inst_318:A1 0.4598
4 net_420:1 net_420:2 0.4800
5 net_420:2 net_420:3 0.4518
6 net_420:3 net_420:4 0.0570
7 net_420:4 net_420:5 0.4909
8 net_420:5 inst_166:A2 0.0572
9 net_420:1 net_420:6 0.4309
10 net_420:6 net_420:7 0.4474
11 net_420:7 net_420:8 0.2931
12 net_420:8 inst_162:A2 0.2848
13 net_420:4 net_420:9 0.4663
14 net_420:9 net_420:10 0.2866
15 net_420:10 net_420:11 0.1873
16 net_420:11 net_420:12 0.1599
17 net_420:12 inst_173:A2 0.3589
18 net_420:12 net_420:13 0.2921
19 net_420:13 net_420:14 0.4162
20 net_420:14 net_420:15 0.1285
21 net_420:15 net_420:16 0.0491
22 net_420:16 net_420:17 0.3511
23 net_420:17 inst_583:A1 0.2111
24 net_420:10 net_420:18 0.2365
25 net_420:18 net_420:19 0.0021
26 net_420:19 inst_574:A1 0.2080
*END

*D_NET net_542 14.2800
*CONN
*I TAUGATE_441:Z O
*I inst_305:A2 I
*I inst_228:A2 I
*I inst_245:A1 I
*I inst_306:A1 I
*I inst_140:A1 I
*I inst_427:A I
*I inst_137:A2 I
*I inst_226:A1 I
*I inst_203:A2 I
*I inst_56:A1 I
*I inst_152:A2 I
*I inst_149:A2 I
*I inst_223:A2 I
*CAP
1 TAUGATE_441:Z 0.4886
2 net_542:1 0.4404
3 net_542:2 0.3187
4 net_542:3 0.4272
5 net_542:4 0.0224
6 inst_56:A1 0.4026
7 net_542:5 0.2614
8 net_542:6 0.1530
9 inst_228:A2 0.2582
10 net_542:7 0.2666
11 net_542:8 0.4255
12 net_542:9 0.4671
13 net_542:10 0.2972
14 inst_245:A1 0.3936
15 net_542:11 0.3795
16 net_542:12 0.2362
17 inst_306:A1 0.1908
18 net_542:13 0.0541
19 inst_140:A1 0.3700
20 net_542:14 0.0063
21 net_542:15 0.4904
22 inst_427:A 0.0915
23 net_542:16 0.2231
24 inst_137:A2 0.2934
25 net_542:17 0.0765
26 net_542:18 0.1980
27 net_542:19 0.3226
28 inst_226:A1 0.1282
29 net_542:20 0.0407
30 net_542:21 0.4130
31 net_542:22 0.3462
32 net_542:23 0.0714
33 net_542:24 0.2110
34 inst_203:A2 0.2588
35 net_542:25 0.0645
36 net_542:26 0.3416
37 net_542:27 0.4099
38 net_542:28 0.1540
39 net_542:29 0.0325
40 inst_305:A2 0.0924
41 net_542:30 0.4926
42 net_542:31 0.0580
43 net_542:32 0.3810
44 net_542:33 0.2195
45 net_542:34 0.2042
46 inst_152:A2 0.2030
47 net_542:35 0.0857
48 net_542:36 0.2654
49 net_542:37 0.2245
50 net_542:38 0.4797
51 net_542:39 0.0551
52 inst_149:A2 0.1877
53 net_542:40 0.2766
54 net_542:41 0.3086
55 net_542:42 0.2353
56 inst_223:A2 0.4838
*RES
2 TAUGATE_441:Z net_542:1 0.2784
3 net_542:1 net_542:2 0.1803
4 net_542:2 net_542:3 0.0882
5 net_542:3 net_542:4 0.2924
6 net_542:4 inst_56:A1 0.4780
7 net_542:4 net_542:5 0.4484
8 net_542:5 net_542:6 0.0762
9 net_542:6 inst_228:A2 0.1986
10 net_542:6 net_542:7 0.4880
11 net_542:7 net_542:8 0.4169
12 net_542:8 net_542:9 0.3167
13 net_542:9 net_542:10 0.3376
14 net_542:10 inst_245:A1 0.1073
15 net_542:7 net_542:11 0.1996
16 net_542:11 net_542:12 0.3123
17 net_542:12 inst_306:A1 0.1251
18 net_542:8 net_542:13 0.3260
19 net_542:13 inst_140:A1 0.3466
20 net_542:12 net_542:14 0.4619
21 net_542:14 net_542:15 0.1065
22 net_542:15 inst_427:A 0.1990
23 net_542:9 net_542:16 0.0661
24 net_542:16 inst_137:A2 0.0281
25 net_542:4 net_542:17 0.2766
26 net_542:17 net_542:18 0.4045
27 net_542:18 net_542:19 0.4267
28 net_542:19 inst_226:A1 0.4596
29 net_542:19 net_542:20 0.0339
30 net_542:20 net_542:21 0.0519
31 net_542:21 net_542:22 0.4874
32 net_542:22 net_542:23 0.0374
33 net_542:23 net_542:24 0.2489
34 net_542:24 inst_203:A2 0.2584
35 net_542:2 net_542:25 0.1850
36 net_542:25 net_542:26 0.1516
37 net_542:26 net_542:27 0.2746
38 net_542:27 net_542:28 0.4228
39 net_542:28 net_542:29 0.1417
40 net_542:29 inst_305:A2 0.3754
41 net_542:12 net_542:30 0.2656
42 net_542:30 net_542:31 0.4413
43 net_542:31 net_542:32 0.1336
44 net_542:32 net_542:33 0.4042
45 net_542:33 net_542:34 0.0451
46 net_542:34 inst_152:A2 0.2391
47 net_542:2 net_542:35 0.0973
48 net_542:35 net_542:36 0.4235
49 net_542:36 net_542:37 0.1903
50 net_542:37 net_542:38 0.2143
51 net_542:38 net_542:39 0.0701
52 net_542:39 inst_149:A2 0.2421
53 net_542:37 net_542:40 0.0722
54 net_542:40 net_542:41 0.3539
55 net_542:41 net_542:42 0.3446
56 net_542:42 inst_223:A2 0.0192
*END

*D_NET net_378 3.1110
*CONN
*I TAUGATE_41:Z O
*I inst_21:A1 I
*I inst_304:A2 I
*CAP
1 TAUGATE_41:Z 0.4054
2 net_378:1 0.4419
3 net_378:2 0.1561
4 net_378:3 0.1347
5 net_378:4 0.0224
6 inst_21:A1 0.3933
7 net_378:5 0.3583
8 net_378:6 0.0251
9 net_378:7 0.0071
10 net_378:8 0.2242
11 net_378:9 0.4834
12 inst_304:A2 0.4589
*RES
2 TAUGATE_41:Z net_378:1 0.2244
3 net_378:1 net_378:2 0.4154
4 net_378:2 net_378:3 0.1374
5 net_378:3 net_378:4 0.1713
6 net_378:4 inst_21:A1 0.2153
7 net_378:3 net_378:5 0.0098
8 net_378:5 net_378:6 0.3264
9 net_378:6 net_378:7 0.2846
10 net_378:7 net_378:8 0.4721
11 net_378:8 net_378:9 0.1185
12 net_378:9 inst_304:A2 0.4585
*END

*D_NET net_447 1.8587
*CONN
*I inst_330:ZN O
*I inst_334:A2 I
*CAP
1 inst_330:ZN 0.0365
2 net_447:1 0.4335
3 net_447:2 0.3158
4 net_447:3 0.2513
5 net_447:4 0.4798
6 net_447:5 0.1640
7 inst_334:A2 0.1778
*RES
2 inst_330:ZN net_447:1 0.3155
3 net_447:1 net_447:2 0.4909
4 net_447:2 net_447:3 0.2285
5 net_447:3 net_447:4 0.2293
6 net_447:4 net_447:5 0.4514
7 net_447:5 inst_334:A2 0.1489
*END

*D_NET net_164 3.0672
*CONN
*I inst_66:ZN O
*I inst_535:A I
*I inst_76:A2 I
*CAP
1 inst_66:ZN 0.1815
2 net_164:1 0.3238
3 net_164:2 0.1536
4 net_164:3 0.2744
5 inst_76:A2 0.3973
6 net_164:4 0.4392
7 net_164:5 0.4660
8 net_164:6 0.3296
9 net_164:7 0.2711
10 net_164:8 0.1177
11 inst_535:A 0.1130
*RES
2 inst_66:ZN net_164:1 0.0682
3 net_164:1 net_164:2 0.0813
4 net_164:2 net_164:3 0.2235
5 net_164:3 inst_76:A2 0.0018
6 net_164:2 net_164:4 0.0719
7 net_164:4 net_164:5 0.2913
8 net_164:5 net_164:6 0.3837
9 net_164:6 net_164:7 0.4308
10 net_164:7 net_164:8 0.4593
11 net_164:8 inst_535:A 0.4578
*END

*D_NET net_508 1.6302
*CONN
*I inst_366:ZN O
*I inst_234:A1 I
*CAP
1 inst_366:ZN 0.4235
2 net_508:1 0.4330
3 net_508:2 0.3792
4 inst_234:A1 0.3945
*RES
2 inst_366:ZN net_508:1 0.1168
3 net_508:1 net_508:2 0.0632
4 net_508:2 inst_234:A1 0.3389
*END

*D_NET TAUNET_207 2.2273
*CONN
*I inst_349:ZN O
*I TAUGATE_207:A I
*I inst_261:A1 I
*CAP
1 inst_349:ZN 0.0022
2 TAUNET_207:1 0.0342
3 TAUNET_207:2 0.1492
4 TAUNET_207:3 0.1342
5 TAUNET_207:4 0.2299
6 TAUGATE_207:A 0.4466
7 TAUNET_207:5 0.0259
8 TAUNET_207:6 0.3818
9 TAUNET_207:7 0.2326
10 TAUNET_207:8 0.3632
11 inst_261:A1 0.2277
*RES
2 inst_349:ZN TAUNET_207:1 0.0789
3 TAUNET_207:1 TAUNET_207:2 0.1418
4 TAUNET_207:2 TAUNET_207:3 0.2162
5 TAUNET_207:3 TAUNET_207:4 0.3480
6 TAUNET_207:4 TAUGATE_207:A 0.3423
7 TAUNET_207:3 TAUNET_207:5 0.1399
8 TAUNET_207:5 TAUNET_207:6 0.3067
9 TAUNET_207:6 TAUNET_207:7 0.2194
10 TAUNET_207:7 TAUNET_207:8 0.0694
11 TAUNET_207:8 inst_261:A1 0.1731
*END

*D_NET net_16 4.8329
*CONN
*I TAUGATE_300:Z O
*I inst_48:A2 I
*I inst_50:A2 I
*I inst_196:A1 I
*I inst_38:A1 I
*I inst_388:A I
*CAP
1 TAUGATE_300:Z 0.1910
2 net_16:1 0.1519
3 inst_48:A2 0.4158
4 net_16:2 0.1398
5 inst_50:A2 0.3850
6 net_16:3 0.0178
7 net_16:4 0.1655
8 net_16:5 0.3230
9 net_16:6 0.3040
10 inst_196:A1 0.3068
11 net_16:7 0.4662
12 net_16:8 0.1239
13 net_16:9 0.3524
14 net_16:10 0.4065
15 net_16:11 0.3838
16 inst_38:A1 0.2328
17 net_16:12 0.2212
18 net_16:13 0.0552