*SPEF "IEEE 1481-1998"
*DESIGN "changes"
*DATE "Tue Dec 02 20:47:41 2014"
*VENDOR "TAU 2015 Contest"
*PROGRAM "Benchmark Parasitic Generator"
*VERSION "0.0"
*DESIGN_FLOW "NETLIST_TYPE_VERILOG"
*DIVIDER /
*DELIMITER :
*BUS_DELIMITER [ ]
*T_UNIT 1 PS
*C_UNIT 1 FF
*R_UNIT 1 KOHM
*L_UNIT 1 UH

*D_NET TAUNET_4 1.7439
*CONN
*I inst_191:ZN O
*I TAUGATE_4:A I
*CAP
1 inst_191:ZN 0.2611
2 TAUNET_4:1 0.4098
3 TAUNET_4:2 0.5009
4 TAUNET_4:3 0.2843
5 TAUGATE_4:A 0.2878
*RES
2 inst_191:ZN TAUNET_4:1 0.1659
3 TAUNET_4:1 TAUNET_4:2 0.2742
4 TAUNET_4:2 TAUNET_4:3 0.3494
5 TAUNET_4:3 TAUGATE_4:A 0.1485
*END

*D_NET TAUNET_2 1.3760
*CONN
*I inst_224:ZN O
*I TAUGATE_2:A I
*CAP
1 inst_224:ZN 0.2110
2 TAUNET_2:1 0.3070
3 TAUNET_2:2 0.3583
4 TAUNET_2:3 0.1395
5 TAUNET_2:4 0.0646
6 TAUNET_2:5 0.0794
7 TAUGATE_2:A 0.2161
*RES
2 inst_224:ZN TAUNET_2:1 0.1614
3 TAUNET_2:1 TAUNET_2:2 0.3312
4 TAUNET_2:2 TAUNET_2:3 0.3755
5 TAUNET_2:3 TAUNET_2:4 0.4644
6 TAUNET_2:4 TAUNET_2:5 0.4559
7 TAUNET_2:5 TAUGATE_2:A 0.4050
*END

*D_NET net_529 4.8652
*CONN
*I TAUGATE_2:Z O
*I inst_360:A I
*I inst_101:A2 I
*I inst_72:A2 I
*I inst_346:S I
*CAP
1 TAUGATE_2:Z 0.1670
2 net_529:1 0.2440
3 net_529:2 0.0332
4 inst_360:A 0.0406
5 net_529:3 0.3706
6 net_529:4 0.0740
7 net_529:5 0.4871
8 inst_101:A2 0.4951
9 net_529:6 0.3356
10 net_529:7 0.3995
11 net_529:8 0.3845
12 net_529:9 0.4708
13 net_529:10 0.3056
14 inst_72:A2 0.3464
15 net_529:11 0.3276
16 inst_346:S 0.3833
*RES
2 TAUGATE_2:Z net_529:1 0.2732
3 net_529:1 net_529:2 0.0073
4 net_529:2 inst_360:A 0.1308
5 net_529:1 net_529:3 0.4125
6 net_529:3 net_529:4 0.0565
7 net_529:4 net_529:5 0.1285
8 net_529:5 inst_101:A2 0.0292
9 net_529:3 net_529:6 0.0305
10 net_529:6 net_529:7 0.2383
11 net_529:7 net_529:8 0.4020
12 net_529:8 net_529:9 0.2529
13 net_529:9 net_529:10 0.2665
14 net_529:10 inst_72:A2 0.4354
15 net_529:4 net_529:11 0.3292
16 net_529:11 inst_346:S 0.0716
*END

*D_NET net_494 1.3846
*CONN
*I TAUGATE_3:Z O
*I inst_198:A2 I
*CAP
1 TAUGATE_3:Z 0.1922
2 net_494:1 0.1322
3 net_494:2 0.1905
4 net_494:3 0.4017
5 inst_198:A2 0.4680
*RES
2 TAUGATE_3:Z net_494:1 0.2976
3 net_494:1 net_494:2 0.2331
4 net_494:2 net_494:3 0.2927
5 net_494:3 inst_198:A2 0.3943
*END

*D_NET TAUNET_3 1.0845
*CONN
*I inst_372:ZN O
*I TAUGATE_3:A I
*CAP
1 inst_372:ZN 0.1955
2 TAUNET_3:1 0.4889
3 TAUNET_3:2 0.0703
4 TAUGATE_3:A 0.3298
*RES
2 inst_372:ZN TAUNET_3:1 0.4131
3 TAUNET_3:1 TAUNET_3:2 0.3310
4 TAUNET_3:2 TAUGATE_3:A 0.2621
*END

*D_NET net_472 0.9833
*CONN
*I TAUGATE_4:Z O
*I inst_187:A3 I
*CAP
1 TAUGATE_4:Z 0.1808
2 net_472:1 0.3990
3 inst_187:A3 0.4035
*RES
2 TAUGATE_4:Z net_472:1 0.0219
3 net_472:1 inst_187:A3 0.0830
*END

