*SPEF "IEEE 1481-1998"
*DESIGN "changes"
*DATE "Tue Dec 02 20:47:42 2014"
*VENDOR "TAU 2015 Contest"
*PROGRAM "Benchmark Parasitic Generator"
*VERSION "0.0"
*DESIGN_FLOW "NETLIST_TYPE_VERILOG"
*DIVIDER /
*DELIMITER :
*BUS_DELIMITER [ ]
*T_UNIT 1 PS
*C_UNIT 1 FF
*R_UNIT 1 KOHM
*L_UNIT 1 UH

*D_NET TAUNET_9 1.7439
*CONN
*I inst_470:ZN O
*I TAUGATE_9:A I
*CAP
1 inst_470:ZN 0.2611
2 TAUNET_9:1 0.4098
3 TAUNET_9:2 0.5009
4 TAUNET_9:3 0.2843
5 TAUGATE_9:A 0.2878
*RES
2 inst_470:ZN TAUNET_9:1 0.1659
3 TAUNET_9:1 TAUNET_9:2 0.2742
4 TAUNET_9:2 TAUNET_9:3 0.3494
5 TAUNET_9:3 TAUGATE_9:A 0.1485
*END

*D_NET net_548 1.3760
*CONN
*I TAUGATE_6:Z O
*I inst_155:A3 I
*CAP
1 TAUGATE_6:Z 0.2110
2 net_548:1 0.3070
3 net_548:2 0.3583
4 net_548:3 0.1395
5 net_548:4 0.0646
6 net_548:5 0.0794
7 inst_155:A3 0.2161
*RES
2 TAUGATE_6:Z net_548:1 0.1614
3 net_548:1 net_548:2 0.3312
4 net_548:2 net_548:3 0.3755
5 net_548:3 net_548:4 0.4644
6 net_548:4 net_548:5 0.4559
7 net_548:5 inst_155:A3 0.4050
*END

*D_NET TAUNET_5 0.4849
*CONN
*I inst_402:ZN O
*I TAUGATE_5:A I
*CAP
1 inst_402:ZN 0.1670
2 TAUNET_5:1 0.2440
3 TAUNET_5:2 0.0332
4 TAUGATE_5:A 0.0406
*RES
2 inst_402:ZN TAUNET_5:1 0.2732
3 TAUNET_5:1 TAUNET_5:2 0.0073
4 TAUNET_5:2 TAUGATE_5:A 0.1308
*END

*D_NET TAUNET_8 1.8161
*CONN
*I inst_158:ZN O
*I TAUGATE_8:A I
*CAP
1 inst_158:ZN 0.2909
2 TAUNET_8:1 0.0740
3 TAUNET_8:2 0.4871
4 TAUNET_8:3 0.4951
5 TAUNET_8:4 0.4125
6 TAUGATE_8:A 0.0565
*RES
2 inst_158:ZN TAUNET_8:1 0.1285
3 TAUNET_8:1 TAUNET_8:2 0.0292
4 TAUNET_8:2 TAUNET_8:3 0.2926
5 TAUNET_8:3 TAUNET_8:4 0.4507
6 TAUNET_8:4 TAUGATE_8:A 0.3356
*END

*D_NET net_160 2.3760
*CONN
*I TAUGATE_9:Z O
*I inst_81:A2 I
*I inst_479:A I
*CAP
1 TAUGATE_9:Z 0.3845
2 net_160:1 0.3056
3 net_160:2 0.3464
4 net_160:3 0.0305
5 net_160:4 0.2383
6 net_160:5 0.4020
7 inst_479:A 0.2529
8 net_160:6 0.2236
9 inst_81:A2 0.1922
*RES
2 TAUGATE_9:Z net_160:1 0.2665
3 net_160:1 net_160:2 0.4354
4 net_160:2 net_160:3 0.1977
5 net_160:3 net_160:4 0.0788
6 net_160:4 net_160:5 0.3276
7 net_160:5 inst_479:A 0.3833
8 net_160:4 net_160:6 0.2805
9 net_160:6 inst_81:A2 0.1322
*END

*D_NET net_25 3.1959
*CONN
*I TAUGATE_5:Z O
*I inst_405:A I
*I inst_119:A2 I
*CAP
1 TAUGATE_5:Z 0.4017
2 net_25:1 0.2976
3 net_25:2 0.2331
4 net_25:3 0.2927
5 net_25:4 0.3943
6 net_25:5 0.2211
7 inst_405:A 0.1955
8 net_25:6 0.1808
9 net_25:7 0.0717
10 net_25:8 0.3990
11 net_25:9 0.4035
12 net_25:10 0.0219
13 inst_119:A2 0.0830
*RES
2 TAUGATE_5:Z net_25:1 0.1868
3 net_25:1 net_25:2 0.4889
4 net_25:2 net_25:3 0.0703
5 net_25:3 net_25:4 0.3298
6 net_25:4 net_25:5 0.4131
7 net_25:5 inst_405:A 0.3310
8 net_25:3 net_25:6 0.4539
9 net_25:6 net_25:7 0.1250
10 net_25:7 net_25:8 0.3196
11 net_25:8 net_25:9 0.4976
12 net_25:9 net_25:10 0.3591
13 net_25:10 inst_119:A2 0.2780
*END

*D_NET net_346 2.6031
*CONN
*I TAUGATE_7:Z O
*I inst_297:A2 I
*CAP
1 TAUGATE_7:Z 0.1593
2 net_346:1 0.3498
3 net_346:2 0.4055
4 net_346:3 0.4519
5 net_346:4 0.4658
6 net_346:5 0.3690
7 inst_297:A2 0.4019
*RES
2 TAUGATE_7:Z net_346:1 0.0632
3 net_346:1 net_346:2 0.2503
4 net_346:2 net_346:3 0.4700
5 net_346:3 net_346:4 0.3789
6 net_346:4 net_346:5 0.3545
7 net_346:5 inst_297:A2 0.1033
*END

*D_NET TAUNET_6 1.3094
*CONN
*I inst_367:ZN O
*I TAUGATE_6:A I
*CAP
1 inst_367:ZN 0.1782
2 TAUNET_6:1 0.0376
3 TAUNET_6:2 0.0972
4 TAUNET_6:3 0.3594
5 TAUNET_6:4 0.0525
6 TAUNET_6:5 0.3248
7 TAUGATE_6:A 0.2597
*RES
2 inst_367:ZN TAUNET_6:1 0.1267
3 TAUNET_6:1 TAUNET_6:2 0.3840
4 TAUNET_6:2 TAUNET_6:3 0.2434
5 TAUNET_6:3 TAUNET_6:4 0.3726
6 TAUNET_6:4 TAUNET_6:5 0.2980
7 TAUNET_6:5 TAUGATE_6:A 0.2454
*END

*D_NET net_544 1.0674
*CONN
*I TAUGATE_8:Z O
*I inst_131:A2 I
*CAP
1 TAUGATE_8:Z 0.1921
2 net_544:1 0.4443
3 net_544:2 0.1288
4 inst_131:A2 0.3022
*RES
2 TAUGATE_8:Z net_544:1 0.1405
3 net_544:1 net_544:2 0.0668
4 net_544:2 inst_131:A2 0.3699
*END

*D_NET TAUNET_7 1.5989
*CONN
*I inst_153:ZN O
*I TAUGATE_7:A I
*CAP
1 inst_153:ZN 0.4004
2 TAUNET_7:1 0.1341
3 TAUNET_7:2 0.3915
4 TAUNET_7:3 0.0282
5 TAUNET_7:4 0.3089
6 TAUNET_7:5 0.0253
7 TAUGATE_7:A 0.3105
*RES
2 inst_153:ZN TAUNET_7:1 0.1881
3 TAUNET_7:1 TAUNET_7:2 0.2034
4 TAUNET_7:2 TAUNET_7:3 0.1592
5 TAUNET_7:3 TAUNET_7:4 0.3147
6 TAUNET_7:4 TAUNET_7:5 0.2761
7 TAUNET_7:5 TAUGATE_7:A 0.3643
*END

