*SPEF "IEEE 1481-1998"
*DESIGN "changes"
*DATE "Tue Dec 02 20:47:42 2014"
*VENDOR "TAU 2015 Contest"
*PROGRAM "Benchmark Parasitic Generator"
*VERSION "0.0"
*DESIGN_FLOW "NETLIST_TYPE_VERILOG"
*DIVIDER /
*DELIMITER :
*BUS_DELIMITER [ ]
*T_UNIT 1 PS
*C_UNIT 1 FF
*R_UNIT 1 KOHM
*L_UNIT 1 UH

*D_NET net_552 1.7439
*CONN
*I TAUGATE_51:Z O
*I inst_563:D I
*CAP
1 TAUGATE_51:Z 0.2611
2 net_552:1 0.4098
3 net_552:2 0.5009
4 net_552:3 0.2843
5 inst_563:D 0.2878
*RES
2 TAUGATE_51:Z net_552:1 0.1659
3 net_552:1 net_552:2 0.2742
4 net_552:2 net_552:3 0.3494
5 net_552:3 inst_563:D 0.1485
*END

*D_NET TAUNET_13 1.3760
*CONN
*I inst_408:ZN O
*I TAUGATE_13:A I
*CAP
1 inst_408:ZN 0.2110
2 TAUNET_13:1 0.3070
3 TAUNET_13:2 0.3583
4 TAUNET_13:3 0.1395
5 TAUNET_13:4 0.0646
6 TAUNET_13:5 0.0794
7 TAUGATE_13:A 0.2161
*RES
2 inst_408:ZN TAUNET_13:1 0.1614
3 TAUNET_13:1 TAUNET_13:2 0.3312
4 TAUNET_13:2 TAUNET_13:3 0.3755
5 TAUNET_13:3 TAUNET_13:4 0.4644
6 TAUNET_13:4 TAUNET_13:5 0.4559
7 TAUNET_13:5 TAUGATE_13:A 0.4050
*END

*D_NET TAUNET_12 0.4849
*CONN
*I inst_403:ZN O
*I TAUGATE_12:A I
*CAP
1 inst_403:ZN 0.1670
2 TAUNET_12:1 0.2440
3 TAUNET_12:2 0.0332
4 TAUGATE_12:A 0.0406
*RES
2 inst_403:ZN TAUNET_12:1 0.2732
3 TAUNET_12:1 TAUNET_12:2 0.0073
4 TAUNET_12:2 TAUGATE_12:A 0.1308
*END

*D_NET net_435 1.8161
*CONN
*I TAUGATE_26:Z O
*I inst_332:A2 I
*CAP
1 TAUGATE_26:Z 0.2909
2 net_435:1 0.0740
3 net_435:2 0.4871
4 net_435:3 0.4951
5 net_435:4 0.4125
6 inst_332:A2 0.0565
*RES
2 TAUGATE_26:Z net_435:1 0.1285
3 net_435:1 net_435:2 0.0292
4 net_435:2 net_435:3 0.2926
5 net_435:3 net_435:4 0.4507
6 net_435:4 inst_332:A2 0.3356
*END

*D_NET G552 1.9602
*CONN
*I TAUGATE_20:Z O
*P G552 O
*CAP
1 TAUGATE_20:Z 0.3845
2 G552:1 0.3056
3 G552:2 0.3464
4 G552:3 0.0305
5 G552:4 0.2383
6 G552:5 0.4020
7 G552 0.2529
*RES
2 TAUGATE_20:Z G552:1 0.2665
3 G552:1 G552:2 0.4354
4 G552:2 G552:3 0.1977
5 G552:3 G552:4 0.0788
6 G552:4 G552:5 0.3276
7 G552:5 G552 0.3833
*END

*D_NET net_346 0.8670
*CONN
*I TAUGATE_45:Z O
*I inst_297:A2 I
*CAP
1 TAUGATE_45:Z 0.0716
2 net_346:1 0.1922
3 net_346:2 0.2805
4 net_346:3 0.1322
5 inst_297:A2 0.1905
*RES
2 TAUGATE_45:Z net_346:1 0.4017
3 net_346:1 net_346:2 0.4680
4 net_346:2 net_346:3 0.2976
5 net_346:3 inst_297:A2 0.2331
*END

*D_NET net_297 2.1383
*CONN
*I TAUGATE_33:Z O
*I inst_6:A2 I
*I inst_280:A2 I
*CAP
1 TAUGATE_33:Z 0.3943
2 net_297:1 0.1955
3 net_297:2 0.1868
4 net_297:3 0.4889
5 inst_280:A2 0.0703
6 net_297:4 0.3990
7 inst_6:A2 0.4035
*RES
2 TAUGATE_33:Z net_297:1 0.3298
3 net_297:1 net_297:2 0.4131
4 net_297:2 net_297:3 0.3310
5 net_297:3 inst_280:A2 0.2621
6 net_297:1 net_297:4 0.0219
7 net_297:4 inst_6:A2 0.0830
*END

*D_NET TAUNET_35 1.6212
*CONN
*I inst_377:ZN O
*I TAUGATE_35:A I
*CAP
1 inst_377:ZN 0.1250
2 TAUNET_35:1 0.4976
3 TAUNET_35:2 0.3591
4 TAUNET_35:3 0.2780
5 TAUNET_35:4 0.2022
6 TAUGATE_35:A 0.1593
*RES
2 inst_377:ZN TAUNET_35:1 0.4382
3 TAUNET_35:1 TAUNET_35:2 0.3498
4 TAUNET_35:2 TAUNET_35:3 0.4055
5 TAUNET_35:3 TAUNET_35:4 0.4519
6 TAUNET_35:4 TAUGATE_35:A 0.4658
*END

*D_NET net_532 2.2534
*CONN
*I TAUGATE_43:Z O
*I inst_186:A3 I
*I inst_187:A1 I
*CAP
1 TAUGATE_43:Z 0.4019
2 net_532:1 0.2503
3 inst_187:A1 0.4700
4 net_532:2 0.0376
5 net_532:3 0.0972
6 net_532:4 0.3594
7 net_532:5 0.0525
8 net_532:6 0.3248
9 inst_186:A3 0.2597
*RES
2 TAUGATE_43:Z net_532:1 0.3789
3 net_532:1 inst_187:A1 0.3545
4 net_532:1 net_532:2 0.1267
5 net_532:2 net_532:3 0.3840
6 net_532:3 net_532:4 0.2434
7 net_532:4 net_532:5 0.3726
8 net_532:5 net_532:6 0.2980
9 net_532:6 inst_186:A3 0.2454
*END

*D_NET net_320 3.7296
*CONN
*I TAUGATE_57:Z O
*I inst_347:S I
*I inst_32:A2 I
*I inst_407:A I
*I inst_71:A1 I
*CAP
1 TAUGATE_57:Z 0.1921
2 net_320:1 0.4443
3 net_320:2 0.1288
4 inst_71:A1 0.3022
5 net_320:3 0.0282
6 net_320:4 0.3089
7 net_320:5 0.0253
8 net_320:6 0.3105
9 inst_32:A2 0.1881
10 net_320:7 0.3854
11 inst_407:A 0.3580
12 net_320:8 0.2154
13 net_320:9 0.4921
14 net_320:10 0.1648
15 inst_347:S 0.1855
*RES
2 TAUGATE_57:Z net_320:1 0.1405
3 net_320:1 net_320:2 0.0668
4 net_320:2 inst_71:A1 0.3699
5 net_320:1 net_320:3 0.2034
6 net_320:3 net_320:4 0.1592
7 net_320:4 net_320:5 0.3147
8 net_320:5 net_320:6 0.2761
9 net_320:6 inst_32:A2 0.3643
10 net_320:3 net_320:7 0.3774
11 net_320:7 inst_407:A 0.2731
12 net_320:1 net_320:8 0.0112
13 net_320:8 net_320:9 0.3530
14 net_320:9 net_320:10 0.1128
15 net_320:10 inst_347:S 0.2239
*END

*D_NET net_329 0.9170
*CONN
*I TAUGATE_55:Z O
*I inst_192:A1 I
*CAP
1 TAUGATE_55:Z 0.4230
2 net_329:1 0.3290
3 net_329:2 0.1620
4 inst_192:A1 0.0029
*RES
2 TAUGATE_55:Z net_329:1 0.2883
3 net_329:1 net_329:2 0.1903
4 net_329:2 inst_192:A1 0.4381
*END

*D_NET net_148 6.3160
*CONN
*I TAUGATE_13:Z O
*I inst_244:A2 I
*I inst_64:A1 I
*I inst_435:A I
*I inst_526:A I
*I inst_59:A1 I
*I inst_264:A1 I
*I inst_12:A1 I
*CAP
1 TAUGATE_13:Z 0.0801
2 net_148:1 0.1891
3 net_148:2 0.0464
4 inst_59:A1 0.0364
5 net_148:3 0.4787
6 net_148:4 0.1076
7 inst_64:A1 0.4606
8 net_148:5 0.3736
9 inst_435:A 0.0395
10 net_148:6 0.3513
11 net_148:7 0.1165
12 net_148:8 0.0986
13 net_148:9 0.2243
14 inst_526:A 0.1286
15 net_148:10 0.1869
16 net_148:11 0.4974
17 net_148:12 0.3047
18 net_148:13 0.1200
19 inst_244:A2 0.4969
20 net_148:14 0.2101
21 net_148:15 0.3390
22 net_148:16 0.2046
23 net_148:17 0.3404
24 inst_264:A1 0.1317
25 net_148:18 0.2716
26 net_148:19 0.3735
27 inst_12:A1 0.1079
*RES
2 TAUGATE_13:Z net_148:1 0.0279
3 net_148:1 net_148:2 0.4104
4 net_148:2 inst_59:A1 0.0649
5 net_148:1 net_148:3 0.3388
6 net_148:3 net_148:4 0.4657
7 net_148:4 inst_64:A1 0.3595
8 net_148:1 net_148:5 0.3644
9 net_148:5 inst_435:A 0.0829
10 net_148:5 net_148:6 0.4269
11 net_148:6 net_148:7 0.2482
12 net_148:7 net_148:8 0.2195
13 net_148:8 net_148:9 0.1533
14 net_148:9 inst_526:A 0.4091
15 net_148:5 net_148:10 0.1210
16 net_148:10 net_148:11 0.1733
17 net_148:11 net_148:12 0.1014
18 net_148:12 net_148:13 0.0283
19 net_148:13 inst_244:A2 0.2763
20 net_148:8 net_148:14 0.3617
21 net_148:14 net_148:15 0.0856
22 net_148:15 net_148:16 0.3629
23 net_148:16 net_148:17 0.2821
24 net_148:17 inst_264:A1 0.3900
25 net_148:2 net_148:18 0.3323
26 net_148:18 net_148:19 0.2907
27 net_148:19 inst_12:A1 0.0362
*END

*D_NET TAUNET_46 1.0331
*CONN
*I inst_92:ZN O
*I TAUGATE_46:A I
*CAP
1 inst_92:ZN 0.4101
2 TAUNET_46:1 0.2135
3 TAUNET_46:2 0.0419
4 TAUNET_46:3 0.2773
5 TAUGATE_46:A 0.0903
*RES
2 inst_92:ZN TAUNET_46:1 0.0485
3 TAUNET_46:1 TAUNET_46:2 0.4602
4 TAUNET_46:2 TAUNET_46:3 0.4262
5 TAUNET_46:3 TAUGATE_46:A 0.2009
*END

*D_NET net_401 1.7519
*CONN
*I TAUGATE_19:Z O
*I inst_115:A1 I
*CAP
1 TAUGATE_19:Z 0.3090
2 net_401:1 0.4228
3 net_401:2 0.2443
4 net_401:3 0.2458
5 net_401:4 0.3734
6 inst_115:A1 0.1567
*RES
2 TAUGATE_19:Z net_401:1 0.1247
3 net_401:1 net_401:2 0.2439
4 net_401:2 net_401:3 0.2588
5 net_401:3 net_401:4 0.4474
6 net_401:4 inst_115:A1 0.3528
*END

*D_NET TAUNET_24 1.1906
*CONN
*I inst_187:ZN O
*I TAUGATE_24:A I
*CAP
1 inst_187:ZN 0.4436
2 TAUNET_24:1 0.3275
3 TAUNET_24:2 0.0169
4 TAUGATE_24:A 0.4026
*RES
2 inst_187:ZN TAUNET_24:1 0.4684
3 TAUNET_24:1 TAUNET_24:2 0.2490
4 TAUNET_24:2 TAUGATE_24:A 0.0579
*END

*D_NET TAUNET_16 2.1415
*CONN
*I inst_106:ZN O
*I TAUGATE_16:A I
*CAP
1 inst_106:ZN 0.2861
2 TAUNET_16:1 0.3875
3 TAUNET_16:2 0.4796
4 TAUNET_16:3 0.3740
5 TAUNET_16:4 0.1554
6 TAUNET_16:5 0.0209
7 TAUGATE_16:A 0.4380
*RES
2 inst_106:ZN TAUNET_16:1 0.4130
3 TAUNET_16:1 TAUNET_16:2 0.4990
4 TAUNET_16:2 TAUNET_16:3 0.2134
5 TAUNET_16:3 TAUNET_16:4 0.1115
6 TAUNET_16:4 TAUNET_16:5 0.4947
7 TAUNET_16:5 TAUGATE_16:A 0.3666
*END

*D_NET TAUNET_31 1.7795
*CONN
*I inst_141:ZN O
*I TAUGATE_31:A I
*CAP
1 inst_141:ZN 0.4464
2 TAUNET_31:1 0.2969
3 TAUNET_31:2 0.3091
4 TAUNET_31:3 0.5006
5 TAUGATE_31:A 0.2264
*RES
2 inst_141:ZN TAUNET_31:1 0.3973
3 TAUNET_31:1 TAUNET_31:2 0.2044
4 TAUNET_31:2 TAUNET_31:3 0.1531
5 TAUNET_31:3 TAUGATE_31:A 0.3886
*END

*D_NET net_544 1.3806
*CONN
*I TAUGATE_36:Z O
*I inst_131:A2 I
*CAP
1 TAUGATE_36:Z 0.2468
2 net_544:1 0.3652
3 net_544:2 0.1857
4 net_544:3 0.0562
5 net_544:4 0.0882
6 inst_131:A2 0.4386
*RES
2 TAUGATE_36:Z net_544:1 0.2715
3 net_544:1 net_544:2 0.0199
4 net_544:2 net_544:3 0.4145
5 net_544:3 net_544:4 0.1459
6 net_544:4 inst_131:A2 0.1130
*END

*D_NET TAUNET_25 0.5758
*CONN
*I inst_88:ZN O
*I TAUGATE_25:A I
*CAP
1 inst_88:ZN 0.1939
2 TAUNET_25:1 0.0212
3 TAUNET_25:2 0.1417
4 TAUGATE_25:A 0.2190
*RES
2 inst_88:ZN TAUNET_25:1 0.4826
3 TAUNET_25:1 TAUNET_25:2 0.1138
4 TAUNET_25:2 TAUGATE_25:A 0.4033
*END

*D_NET TAUNET_27 0.6715
*CONN
*I inst_383:ZN O
*I TAUGATE_27:A I
*CAP
1 inst_383:ZN 0.2540
2 TAUNET_27:1 0.2388
3 TAUGATE_27:A 0.1787
*RES
2 inst_383:ZN TAUNET_27:1 0.3603
3 TAUNET_27:1 TAUGATE_27:A 0.0603
*END

*D_NET net_302 2.0004
*CONN
*I TAUGATE_37:Z O
*I inst_97:A1 I
*I inst_178:A1 I
*CAP
1 TAUGATE_37:Z 0.3102
2 net_302:1 0.2473
3 net_302:2 0.0055
4 inst_97:A1 0.4935
5 net_302:3 0.4583
6 net_302:4 0.3985
7 net_302:5 0.0145
8 inst_178:A1 0.0725
*RES
2 TAUGATE_37:Z net_302:1 0.2412
3 net_302:1 net_302:2 0.3995
4 net_302:2 inst_97:A1 0.4441
5 net_302:1 net_302:3 0.4492
6 net_302:3 net_302:4 0.3124
7 net_302:4 net_302:5 0.3685
8 net_302:5 inst_178:A1 0.4317
*END

*D_NET TAUNET_28 1.5959
*CONN
*I inst_302:ZN O
*I TAUGATE_28:A I
*CAP
1 inst_302:ZN 0.2826
2 TAUNET_28:1 0.0965
3 TAUNET_28:2 0.2555
4 TAUNET_28:3 0.1304
5 TAUNET_28:4 0.3675
6 TAUGATE_28:A 0.4634
*RES
2 inst_302:ZN TAUNET_28:1 0.2869
3 TAUNET_28:1 TAUNET_28:2 0.1646
4 TAUNET_28:2 TAUNET_28:3 0.1182
5 TAUNET_28:3 TAUNET_28:4 0.0327
6 TAUNET_28:4 TAUGATE_28:A 0.0608
*END

*D_NET TAUNET_57 1.0579
*CONN
*I inst_398:ZN O
*I TAUGATE_57:A I
*CAP
1 inst_398:ZN 0.4648
2 TAUNET_57:1 0.1146
3 TAUNET_57:2 0.3081
4 TAUNET_57:3 0.1439
5 TAUGATE_57:A 0.0264
*RES
2 inst_398:ZN TAUNET_57:1 0.2502
3 TAUNET_57:1 TAUNET_57:2 0.2506
4 TAUNET_57:2 TAUNET_57:3 0.4486
5 TAUNET_57:3 TAUGATE_57:A 0.0641
*END

*D_NET net_369 0.3299
*CONN
*I TAUGATE_28:Z O
*I inst_303:A2 I
*CAP
1 TAUGATE_28:Z 0.0079
2 net_369:1 0.2219
3 inst_303:A2 0.1001
*RES
2 TAUGATE_28:Z net_369:1 0.2747
3 net_369:1 inst_303:A2 0.1704
*END

*D_NET net_357 0.1666
*CONN
*I TAUGATE_16:Z O
*I inst_109:A2 I
*CAP
1 TAUGATE_16:Z 0.0121
2 net_357:1 0.0267
3 inst_109:A2 0.1278
*RES
2 TAUGATE_16:Z net_357:1 0.1079
3 net_357:1 inst_109:A2 0.3621
*END

*D_NET net_348 2.0149
*CONN
*I TAUGATE_47:Z O
*I inst_555:D I
*CAP
1 TAUGATE_47:Z 0.3490
2 net_348:1 0.3195
3 net_348:2 0.4748
4 net_348:3 0.2505
5 net_348:4 0.2036
6 net_348:5 0.3990
7 inst_555:D 0.0185
*RES
2 TAUGATE_47:Z net_348:1 0.3777
3 net_348:1 net_348:2 0.2437
4 net_348:2 net_348:3 0.3641
5 net_348:3 net_348:4 0.1411
6 net_348:4 net_348:5 0.2452
7 net_348:5 inst_555:D 0.2723
*END

*D_NET TAUNET_37 0.3445
*CONN
*I inst_474:ZN O
*I TAUGATE_37:A I
*CAP
1 inst_474:ZN 0.2449
2 TAUNET_37:1 0.0917
3 TAUGATE_37:A 0.0078
*RES
2 inst_474:ZN TAUNET_37:1 0.0227
3 TAUNET_37:1 TAUGATE_37:A 0.0264
*END

*D_NET net_14 4.3236
*CONN
*I TAUGATE_35:Z O
*I inst_9:A2 I
*I inst_385:A I
*I inst_380:A I
*CAP
1 TAUGATE_35:Z 0.1906
2 net_14:1 0.0937
3 net_14:2 0.2944
4 inst_9:A2 0.3987
5 net_14:3 0.1157
6 net_14:4 0.1901
7 net_14:5 0.2138
8 net_14:6 0.5008
9 net_14:7 0.2979
10 inst_385:A 0.3428
11 net_14:8 0.3676
12 net_14:9 0.1603
13 net_14:10 0.4423
14 net_14:11 0.1159
15 net_14:12 0.4527
16 inst_380:A 0.1465
*RES
2 TAUGATE_35:Z net_14:1 0.0209
3 net_14:1 net_14:2 0.1182
4 net_14:2 inst_9:A2 0.1067
5 net_14:2 net_14:3 0.2325
6 net_14:3 net_14:4 0.2733
7 net_14:4 net_14:5 0.1266
8 net_14:5 net_14:6 0.3814
9 net_14:6 net_14:7 0.1363
10 net_14:7 inst_385:A 0.3277
11 net_14:5 net_14:8 0.1463
12 net_14:8 net_14:9 0.4621
13 net_14:9 net_14:10 0.4065
14 net_14:10 net_14:11 0.0227
15 net_14:11 net_14:12 0.2236
16 net_14:12 inst_380:A 0.4114
*END

*D_NET TAUNET_32 0.9678
*CONN
*I inst_153:ZN O
*I TAUGATE_32:A I
*CAP
1 inst_153:ZN 0.1546
2 TAUNET_32:1 0.4367
3 TAUNET_32:2 0.3452
4 TAUGATE_32:A 0.0313
*RES
2 inst_153:ZN TAUNET_32:1 0.1217
3 TAUNET_32:1 TAUNET_32:2 0.0111
4 TAUNET_32:2 TAUGATE_32:A 0.1222
*END

*D_NET TAUNET_38 2.0377
*CONN
*I inst_165:ZN O
*I TAUGATE_38:A I
*CAP
1 inst_165:ZN 0.1692
2 TAUNET_38:1 0.4978
3 TAUNET_38:2 0.2563
4 TAUNET_38:3 0.2595
5 TAUNET_38:4 0.2603
6 TAUNET_38:5 0.2874
7 TAUGATE_38:A 0.3072
*RES
2 inst_165:ZN TAUNET_38:1 0.2768
3 TAUNET_38:1 TAUNET_38:2 0.1679
4 TAUNET_38:2 TAUNET_38:3 0.2053
5 TAUNET_38:3 TAUNET_38:4 0.2140
6 TAUNET_38:4 TAUNET_38:5 0.3306
7 TAUNET_38:5 TAUGATE_38:A 0.1569
*END

*D_NET net_510 2.5545
*CONN
*I TAUGATE_40:Z O
*I inst_168:A2 I
*CAP
1 TAUGATE_40:Z 0.2138
2 net_510:1 0.3806
3 net_510:2 0.4946
4 net_510:3 0.4608
5 net_510:4 0.4692
6 net_510:5 0.4766
7 inst_168:A2 0.0589
*RES
2 TAUGATE_40:Z net_510:1 0.0962
3 net_510:1 net_510:2 0.2415
4 net_510:2 net_510:3 0.1750
5 net_510:3 net_510:4 0.4103
6 net_510:4 net_510:5 0.0845
7 net_510:5 inst_168:A2 0.1888
*END

*D_NET net_32 1.7698
*CONN
*I TAUGATE_12:Z O
*I inst_351:A I
*I inst_224:A1 I
*CAP
1 TAUGATE_12:Z 0.1762
2 net_32:1 0.0806
3 net_32:2 0.0407
4 net_32:3 0.2069
5 net_32:4 0.0491
6 net_32:5 0.4137
7 inst_351:A 0.3046
8 net_32:6 0.2007
9 inst_224:A1 0.2971
*RES
2 TAUGATE_12:Z net_32:1 0.2987
3 net_32:1 net_32:2 0.2640
4 net_32:2 net_32:3 0.1831
5 net_32:3 net_32:4 0.4110
6 net_32:4 net_32:5 0.0191
7 net_32:5 inst_351:A 0.3538
8 net_32:5 net_32:6 0.4025
9 net_32:6 inst_224:A1 0.5010
*END

*D_NET net_428 0.8674
*CONN
*I TAUGATE_10:Z O
*I inst_325:A2 I
*CAP
1 TAUGATE_10:Z 0.4649
2 net_428:1 0.1062
3 inst_325:A2 0.2963
*RES
2 TAUGATE_10:Z net_428:1 0.4911
3 net_428:1 inst_325:A2 0.2002
*END

*D_NET net_184 1.0917
*CONN
*I TAUGATE_17:Z O
*I inst_150:A2 I
*CAP
1 TAUGATE_17:Z 0.3761
2 net_184:1 0.4298
3 inst_150:A2 0.2857
*RES
2 TAUGATE_17:Z net_184:1 0.2634
3 net_184:1 inst_150:A2 0.0470
*END

*D_NET TAUNET_40 1.5176
*CONN
*I inst_513:ZN O
*I TAUGATE_40:A I
*CAP
1 inst_513:ZN 0.1738
2 TAUNET_40:1 0.4556
3 TAUNET_40:2 0.1284
4 TAUNET_40:3 0.0036
5 TAUNET_40:4 0.1731
6 TAUNET_40:5 0.2737
7 TAUGATE_40:A 0.3095
*RES
2 inst_513:ZN TAUNET_40:1 0.4895
3 TAUNET_40:1 TAUNET_40:2 0.4033
4 TAUNET_40:2 TAUNET_40:3 0.2734
5 TAUNET_40:3 TAUNET_40:4 0.3461
6 TAUNET_40:4 TAUNET_40:5 0.3729
7 TAUNET_40:5 TAUGATE_40:A 0.0418
*END

*D_NET TAUNET_20 1.1548
*CONN
*I inst_180:ZN O
*I TAUGATE_20:A I
*CAP
1 inst_180:ZN 0.3815
2 TAUNET_20:1 0.4915
3 TAUNET_20:2 0.0683
4 TAUGATE_20:A 0.2135
*RES
2 inst_180:ZN TAUNET_20:1 0.4484
3 TAUNET_20:1 TAUNET_20:2 0.1379
4 TAUNET_20:2 TAUGATE_20:A 0.1139
*END

*D_NET net_462 1.0254
*CONN
*I TAUGATE_11:Z O
*I inst_338:A1 I
*CAP
1 TAUGATE_11:Z 0.0861
2 net_462:1 0.4806
3 net_462:2 0.3473
4 inst_338:A1 0.1114
*RES
2 TAUGATE_11:Z net_462:1 0.0198
3 net_462:1 net_462:2 0.2366
4 net_462:2 inst_338:A1 0.1100
*END

*D_NET net_326 1.2760
*CONN
*I TAUGATE_23:Z O
*I inst_314:A1 I
*CAP
1 TAUGATE_23:Z 0.3290
2 net_326:1 0.4236
3 net_326:2 0.3328
4 inst_314:A1 0.1906
*RES
2 TAUGATE_23:Z net_326:1 0.5003
3 net_326:1 net_326:2 0.4347
4 net_326:2 inst_314:A1 0.3044
*END

*D_NET net_282 1.5228
*CONN
*I TAUGATE_15:Z O
*I inst_290:A2 I
*CAP
1 TAUGATE_15:Z 0.0096
2 net_282:1 0.2377
3 net_282:2 0.2571
4 net_282:3 0.3610
5 net_282:4 0.0042
6 net_282:5 0.2690
7 inst_290:A2 0.3841
*RES
2 TAUGATE_15:Z net_282:1 0.3400
3 net_282:1 net_282:2 0.2352
4 net_282:2 net_282:3 0.3112
5 net_282:3 net_282:4 0.1345
6 net_282:4 net_282:5 0.4134
7 net_282:5 inst_290:A2 0.0741
*END

*D_NET TAUNET_14 0.9047
*CONN
*I inst_252:ZN O
*I TAUGATE_14:A I
*CAP
1 inst_252:ZN 0.4891
2 TAUNET_14:1 0.2122
3 TAUGATE_14:A 0.2034
*RES
2 inst_252:ZN TAUNET_14:1 0.1253
3 TAUNET_14:1 TAUGATE_14:A 0.2112
*END

*D_NET net_536 1.0467
*CONN
*I TAUGATE_44:Z O
*I inst_506:A I
*I inst_147:A1 I
*CAP
1 TAUGATE_44:Z 0.1106
2 net_536:1 0.2644
3 inst_506:A 0.3395
4 net_536:2 0.0383
5 inst_147:A1 0.2939
*RES
2 TAUGATE_44:Z net_536:1 0.4160
3 net_536:1 inst_506:A 0.1311
4 net_536:1 net_536:2 0.2177
5 net_536:2 inst_147:A1 0.0520
*END

*D_NET TAUNET_49 1.5382
*CONN
*I inst_142:ZN O
*I TAUGATE_49:A I
*CAP
1 inst_142:ZN 0.3277
2 TAUNET_49:1 0.1825
3 TAUNET_49:2 0.4154
4 TAUNET_49:3 0.4205
5 TAUGATE_49:A 0.1921
*RES
2 inst_142:ZN TAUNET_49:1 0.3303
3 TAUNET_49:1 TAUNET_49:2 0.0500
4 TAUNET_49:2 TAUNET_49:3 0.3450
5 TAUNET_49:3 TAUGATE_49:A 0.2552
*END

*D_NET net_389 0.9333
*CONN
*I TAUGATE_38:Z O
*I inst_169:A2 I
*CAP
1 TAUGATE_38:Z 0.3943
2 net_389:1 0.3586
3 inst_169:A2 0.1804
*RES
2 TAUGATE_38:Z net_389:1 0.2132
3 net_389:1 inst_169:A2 0.3448
*END

*D_NET net_83 3.1578
*CONN
*I TAUGATE_30:Z O
*I inst_42:A2 I
*I inst_227:A1 I
*I inst_390:A I
*I inst_233:A1 I
*CAP
1 TAUGATE_30:Z 0.0169
2 net_83:1 0.3418
3 net_83:2 0.0277
4 net_83:3 0.2232
5 inst_390:A 0.0700
6 net_83:4 0.2720
7 net_83:5 0.0605
8 inst_227:A1 0.1555
9 net_83:6 0.3163
10 inst_42:A2 0.3515
11 net_83:7 0.4000
12 net_83:8 0.0188
13 net_83:9 0.4709
14 net_83:10 0.4204
15 inst_233:A1 0.0122
*RES
2 TAUGATE_30:Z net_83:1 0.3825
3 net_83:1 net_83:2 0.4916
4 net_83:2 net_83:3 0.0258
5 net_83:3 inst_390:A 0.0722
6 net_83:2 net_83:4 0.4347
7 net_83:4 net_83:5 0.2976
8 net_83:5 inst_227:A1 0.3531
9 net_83:2 net_83:6 0.2983
10 net_83:6 inst_42:A2 0.4269
11 net_83:5 net_83:7 0.2688
12 net_83:7 net_83:8 0.0936
13 net_83:8 net_83:9 0.3051
14 net_83:9 net_83:10 0.1197
15 net_83:10 inst_233:A1 0.2956
*END

*D_NET net_214 0.9466
*CONN
*I TAUGATE_53:Z O
*I inst_122:A3 I
*CAP
1 TAUGATE_53:Z 0.0970
2 net_214:1 0.3150
3 net_214:2 0.0137
4 net_214:3 0.2108
5 inst_122:A3 0.3101
*RES
2 TAUGATE_53:Z net_214:1 0.0161
3 net_214:1 net_214:2 0.2047
4 net_214:2 net_214:3 0.3729
5 net_214:3 inst_122:A3 0.0610
*END

*D_NET net_149 1.7628
*CONN
*I TAUGATE_21:Z O
*I inst_141:A1 I
*CAP
1 TAUGATE_21:Z 0.2910
2 net_149:1 0.3083
3 net_149:2 0.1250
4 net_149:3 0.3526
5 net_149:4 0.3715
6 inst_141:A1 0.3144
*RES
2 TAUGATE_21:Z net_149:1 0.3618
3 net_149:1 net_149:2 0.0820
4 net_149:2 net_149:3 0.2174
5 net_149:3 net_149:4 0.3638
6 net_149:4 inst_141:A1 0.4097
*END

*D_NET TAUNET_50 1.8560
*CONN
*I inst_374:ZN O
*I TAUGATE_50:A I
*CAP
1 inst_374:ZN 0.4080
2 TAUNET_50:1 0.4981
3 TAUNET_50:2 0.3134
4 TAUNET_50:3 0.4059
5 TAUNET_50:4 0.1396
6 TAUGATE_50:A 0.0910
*RES
2 inst_374:ZN TAUNET_50:1 0.1278
3 TAUNET_50:1 TAUNET_50:2 0.3093
4 TAUNET_50:2 TAUNET_50:3 0.3342
5 TAUNET_50:3 TAUNET_50:4 0.2150
6 TAUNET_50:4 TAUGATE_50:A 0.0109
*END

*D_NET TAUNET_23 0.4329
*CONN
*I inst_10:ZN O
*I TAUGATE_23:A I
*CAP
1 inst_10:ZN 0.2298
2 TAUNET_23:1 0.0044
3 TAUGATE_23:A 0.1986
*RES
2 inst_10:ZN TAUNET_23:1 0.0476
3 TAUNET_23:1 TAUGATE_23:A 0.0521
*END

*D_NET TAUNET_39 1.1336
*CONN
*I inst_6:ZN O
*I TAUGATE_39:A I
*CAP
1 inst_6:ZN 0.0043
2 TAUNET_39:1 0.4724
3 TAUNET_39:2 0.2677
4 TAUNET_39:3 0.2426
5 TAUGATE_39:A 0.1466
*RES
2 inst_6:ZN TAUNET_39:1 0.2784
3 TAUNET_39:1 TAUNET_39:2 0.2008
4 TAUNET_39:2 TAUNET_39:3 0.3776
5 TAUNET_39:3 TAUGATE_39:A 0.2937
*END

*D_NET net_17 3.1901
*CONN
*I TAUGATE_50:Z O
*I inst_389:A I
*I inst_381:A I
*I inst_48:A1 I
*CAP
1 TAUGATE_50:Z 0.2822
2 net_17:1 0.0309
3 net_17:2 0.1138
4 net_17:3 0.3809
5 net_17:4 0.3567
6 net_17:5 0.3242
7 inst_389:A 0.2336
8 net_17:6 0.1297
9 net_17:7 0.4791
10 net_17:8 0.2417
11 inst_381:A 0.2444
12 net_17:9 0.2362
13 inst_48:A1 0.1365
*RES
2 TAUGATE_50:Z net_17:1 0.3863
3 net_17:1 net_17:2 0.2365
4 net_17:2 net_17:3 0.1037
5 net_17:3 net_17:4 0.3572
6 net_17:4 net_17:5 0.2211
7 net_17:5 inst_389:A 0.2185
8 net_17:3 net_17:6 0.4262
9 net_17:6 net_17:7 0.3737
10 net_17:7 net_17:8 0.3015
11 net_17:8 inst_381:A 0.1830
12 net_17:7 net_17:9 0.0277
13 net_17:9 inst_48:A1 0.4263
*END

*D_NET TAUNET_51 0.8702
*CONN
*I inst_357:ZN O
*I TAUGATE_51:A I
*CAP
1 inst_357:ZN 0.1111
2 TAUNET_51:1 0.0512
3 TAUNET_51:2 0.1351
4 TAUNET_51:3 0.0984
5 TAUNET_51:4 0.0368
6 TAUGATE_51:A 0.4376
*RES
2 inst_357:ZN TAUNET_51:1 0.1423
3 TAUNET_51:1 TAUNET_51:2 0.1283
4 TAUNET_51:2 TAUNET_51:3 0.1146
5 TAUNET_51:3 TAUNET_51:4 0.3234
6 TAUNET_51:4 TAUGATE_51:A 0.4610
*END

*D_NET net_78 1.5930
*CONN
*I TAUGATE_29:Z O
*I inst_26:A3 I
*CAP
1 TAUGATE_29:Z 0.2776
2 net_78:1 0.3766
3 net_78:2 0.0185
4 net_78:3 0.3877
5 net_78:4 0.1588
6 inst_26:A3 0.3738
*RES
2 TAUGATE_29:Z net_78:1 0.4556
3 net_78:1 net_78:2 0.1835
4 net_78:2 net_78:3 0.0020
5 net_78:3 net_78:4 0.2614
6 net_78:4 inst_26:A3 0.3010
*END

*D_NET net_447 1.0435
*CONN
*I TAUGATE_48:Z O
*I inst_334:A2 I
*CAP
1 TAUGATE_48:Z 0.4372
2 net_447:1 0.1153
3 net_447:2 0.3810
4 inst_334:A2 0.1100
*RES
2 TAUGATE_48:Z net_447:1 0.1662
3 net_447:1 net_447:2 0.3178
4 net_447:2 inst_334:A2 0.2541
*END

*D_NET net_378 1.9983
*CONN
*I TAUGATE_41:Z O
*I inst_21:A1 I
*I inst_304:A2 I
*CAP
1 TAUGATE_41:Z 0.4625
2 net_378:1 0.0981
3 net_378:2 0.3461
4 net_378:3 0.2382
5 inst_21:A1 0.4109
6 net_378:4 0.2455
7 inst_304:A2 0.1970
*RES
2 TAUGATE_41:Z net_378:1 0.0945
3 net_378:1 net_378:2 0.2326
4 net_378:2 net_378:3 0.0121
5 net_378:3 inst_21:A1 0.2674
6 net_378:2 net_378:4 0.0138
7 net_378:4 inst_304:A2 0.4527
*END

*D_NET TAUNET_19 2.1550
*CONN
*I inst_576:ZN O
*I TAUGATE_19:A I
*CAP
1 inst_576:ZN 0.4392
2 TAUNET_19:1 0.0368
3 TAUNET_19:2 0.3283
4 TAUNET_19:3 0.2266
5 TAUNET_19:4 0.4199
6 TAUNET_19:5 0.3736
7 TAUGATE_19:A 0.3306
*RES
2 inst_576:ZN TAUNET_19:1 0.3042
3 TAUNET_19:1 TAUNET_19:2 0.1317
4 TAUNET_19:2 TAUNET_19:3 0.1481
5 TAUNET_19:3 TAUNET_19:4 0.2485
6 TAUNET_19:4 TAUNET_19:5 0.2201
7 TAUNET_19:5 TAUGATE_19:A 0.2966
*END

*D_NET TAUNET_34 0.5227
*CONN
*I inst_514:ZN O
*I TAUGATE_34:A I
*CAP
1 inst_514:ZN 0.0758
2 TAUNET_34:1 0.3812
3 TAUGATE_34:A 0.0656
*RES
2 inst_514:ZN TAUNET_34:1 0.1550
3 TAUNET_34:1 TAUGATE_34:A 0.0047
*END

*D_NET TAUNET_54 1.6139
*CONN
*I inst_82:ZN O
*I TAUGATE_54:A I
*CAP
1 inst_82:ZN 0.2138
2 TAUNET_54:1 0.2523
3 TAUNET_54:2 0.0497
4 TAUNET_54:3 0.4938
5 TAUNET_54:4 0.3913
6 TAUGATE_54:A 0.2131
*RES
2 inst_82:ZN TAUNET_54:1 0.3201
3 TAUNET_54:1 TAUNET_54:2 0.0320
4 TAUNET_54:2 TAUNET_54:3 0.2786
5 TAUNET_54:3 TAUNET_54:4 0.3378
6 TAUNET_54:4 TAUGATE_54:A 0.4364
*END

*D_NET net_410 1.5961
*CONN
*I TAUGATE_52:Z O
*I inst_127:A3 I
*CAP
1 TAUGATE_52:Z 0.4527
2 net_410:1 0.3641
3 net_410:2 0.1740
4 net_410:3 0.2701
5 inst_127:A3 0.3351
*RES
2 TAUGATE_52:Z net_410:1 0.4105
3 net_410:1 net_410:2 0.3004
4 net_410:2 net_410:3 0.3665
5 net_410:3 inst_127:A3 0.1341
*END

*D_NET TAUNET_44 0.7589
*CONN
*I inst_206:ZN O
*I TAUGATE_44:A I
*CAP
1 inst_206:ZN 0.1706
2 TAUNET_44:1 0.0751
3 TAUNET_44:2 0.1227
4 TAUNET_44:3 0.0294
5 TAUNET_44:4 0.0059
6 TAUGATE_44:A 0.3552
*RES
2 inst_206:ZN TAUNET_44:1 0.3839
3 TAUNET_44:1 TAUNET_44:2 0.1840
4 TAUNET_44:2 TAUNET_44:3 0.4010
5 TAUNET_44:3 TAUNET_44:4 0.3573
6 TAUNET_44:4 TAUGATE_44:A 0.4559
*END

*D_NET net_155 1.8802
*CONN
*I TAUGATE_18:Z O
*I inst_289:A1 I
*CAP
1 TAUGATE_18:Z 0.1715
2 net_155:1 0.3594
3 net_155:2 0.4902
4 net_155:3 0.4716
5 net_155:4 0.2112
6 inst_289:A1 0.1762
*RES
2 TAUGATE_18:Z net_155:1 0.1166
3 net_155:1 net_155:2 0.1660
4 net_155:2 net_155:3 0.2177
5 net_155:3 net_155:4 0.2908
6 net_155:4 inst_289:A1 0.3318
*END

*D_NET net_344 4.2108
*CONN
*I TAUGATE_42:Z O
*I inst_108:A1 I
*I inst_484:A I
*I inst_35:A1 I
*CAP
1 TAUGATE_42:Z 0.4080
2 net_344:1 0.1932
3 net_344:2 0.0675
4 net_344:3 0.0053
5 net_344:4 0.1459
6 net_344:5 0.0437
7 inst_484:A 0.4598
8 net_344:6 0.4518
9 net_344:7 0.0570
10 net_344:8 0.4909
11 net_344:9 0.0572
12 net_344:10 0.5008
13 inst_108:A1 0.1013
14 net_344:11 0.2848
15 net_344:12 0.2246
16 net_344:13 0.3320
17 inst_35:A1 0.3870
*RES
2 TAUGATE_42:Z net_344:1 0.3838
3 net_344:1 net_344:2 0.2033
4 net_344:2 net_344:3 0.3263
5 net_344:3 net_344:4 0.4574
6 net_344:4 net_344:5 0.4683
7 net_344:5 inst_484:A 0.1543
8 net_344:2 net_344:6 0.2457
9 net_344:6 net_344:7 0.4210
10 net_344:7 net_344:8 0.2594
11 net_344:8 net_344:9 0.3565
12 net_344:9 net_344:10 0.4074
13 net_344:10 inst_108:A1 0.4309
14 net_344:10 net_344:11 0.3663
15 net_344:11 net_344:12 0.1512
16 net_344:12 net_344:13 0.1368
17 net_344:13 inst_35:A1 0.4493
*END

*D_NET net_547 1.2751
*CONN
*I TAUGATE_58:Z O
*I inst_155:A1 I
*CAP
1 TAUGATE_58:Z 0.2866
2 net_547:1 0.1599
3 net_547:2 0.3589
4 inst_155:A1 0.4697
*RES
2 TAUGATE_58:Z net_547:1 0.4844
3 net_547:1 net_547:2 0.0401
4 net_547:2 inst_155:A1 0.2861
*END

*D_NET TAUNET_43 0.9904
*CONN
*I inst_218:ZN O
*I TAUGATE_43:A I
*CAP
1 inst_218:ZN 0.3075
2 TAUNET_43:1 0.3908
3 TAUGATE_43:A 0.2921
*RES
2 inst_218:ZN TAUNET_43:1 0.4162
3 TAUNET_43:1 TAUGATE_43:A 0.1285
*END

*D_NET net_22 3.0995
*CONN
*I TAUGATE_27:Z O
*I inst_228:A1 I
*I inst_398:A I
*CAP
1 TAUGATE_27:Z 0.3511
2 net_22:1 0.3010
3 net_22:2 0.1515
4 net_22:3 0.0492
5 inst_228:A1 0.2707
6 net_22:4 0.3648
7 net_22:5 0.4404
8 net_22:6 0.3187
9 net_22:7 0.4272
10 net_22:8 0.0224
11 inst_398:A 0.4026
*RES
2 TAUGATE_27:Z net_22:1 0.0711
3 net_22:1 net_22:2 0.2365
4 net_22:2 net_22:3 0.0021
5 net_22:3 inst_228:A1 0.2080
6 net_22:3 net_22:4 0.2784
7 net_22:4 net_22:5 0.1803
8 net_22:5 net_22:6 0.0882
9 net_22:6 net_22:7 0.2924
10 net_22:7 net_22:8 0.4780
11 net_22:8 inst_398:A 0.3510
*END

*D_NET TAUNET_56 1.0443
*CONN
*I inst_266:ZN O
*I TAUGATE_56:A I
*CAP
1 inst_266:ZN 0.2614
2 TAUNET_56:1 0.2582
3 TAUNET_56:2 0.4484
4 TAUGATE_56:A 0.0762
*RES
2 inst_266:ZN TAUNET_56:1 0.1986
3 TAUNET_56:1 TAUNET_56:2 0.3922
4 TAUNET_56:2 TAUGATE_56:A 0.3950
*END

*D_NET TAUNET_55 2.6754
*CONN
*I inst_293:ZN O
*I TAUGATE_55:A I
*CAP
1 inst_293:ZN 0.4255
2 TAUNET_55:1 0.2972
3 TAUNET_55:2 0.3936
4 TAUNET_55:3 0.4880
5 TAUNET_55:4 0.4169
6 TAUNET_55:5 0.3167
7 TAUGATE_55:A 0.3376
*RES
2 inst_293:ZN TAUNET_55:1 0.1073
3 TAUNET_55:1 TAUNET_55:2 0.3579
4 TAUNET_55:2 TAUNET_55:3 0.1300
5 TAUNET_55:3 TAUNET_55:4 0.3795
6 TAUNET_55:4 TAUNET_55:5 0.2362
7 TAUNET_55:5 TAUGATE_55:A 0.1908
*END

*D_NET net_328 0.6491
*CONN
*I TAUGATE_39:Z O
*I inst_178:A2 I
*CAP
1 TAUGATE_39:Z 0.3123
2 net_328:1 0.0048
3 net_328:2 0.3126
4 inst_178:A2 0.0195
*RES
2 TAUGATE_39:Z net_328:1 0.0541
3 net_328:1 net_328:2 0.3700
4 net_328:2 inst_178:A2 0.3260
*END

*D_NET TAUNET_11 1.8468
*CONN
*I inst_337:ZN O
*I TAUGATE_11:A I
*CAP
1 inst_337:ZN 0.4948
2 TAUNET_11:1 0.1954
3 TAUNET_11:2 0.0063
4 TAUNET_11:3 0.4904
5 TAUNET_11:4 0.0915
6 TAUNET_11:5 0.4619
7 TAUGATE_11:A 0.1065
*RES
2 inst_337:ZN TAUNET_11:1 0.1990
3 TAUNET_11:1 TAUNET_11:2 0.2576
4 TAUNET_11:2 TAUNET_11:3 0.0690
5 TAUNET_11:3 TAUNET_11:4 0.2231
6 TAUNET_11:4 TAUNET_11:5 0.2934
7 TAUNET_11:5 TAUGATE_11:A 0.0661
*END

*D_NET TAUNET_33 0.8263
*CONN
*I inst_68:ZN O
*I TAUGATE_33:A I
*CAP
1 inst_68:ZN 0.1011
2 TAUNET_33:1 0.0765
3 TAUNET_33:2 0.1980
4 TAUNET_33:3 0.3226
5 TAUGATE_33:A 0.1282
*RES
2 inst_68:ZN TAUNET_33:1 0.2766
3 TAUNET_33:1 TAUNET_33:2 0.4045
4 TAUNET_33:2 TAUNET_33:3 0.4267
5 TAUNET_33:3 TAUGATE_33:A 0.4596
*END

*D_NET TAUNET_22 1.8134
*CONN
*I inst_194:ZN O
*I TAUGATE_22:A I
*CAP
1 inst_194:ZN 0.4724
2 TAUNET_22:1 0.0407
3 TAUNET_22:2 0.4130
4 TAUNET_22:3 0.3462
5 TAUNET_22:4 0.0714
6 TAUNET_22:5 0.2110
7 TAUGATE_22:A 0.2588
*RES
2 inst_194:ZN TAUNET_22:1 0.0339
3 TAUNET_22:1 TAUNET_22:2 0.0519
4 TAUNET_22:2 TAUNET_22:3 0.4874
5 TAUNET_22:3 TAUNET_22:4 0.0374
6 TAUNET_22:4 TAUNET_22:5 0.2489
7 TAUNET_22:5 TAUGATE_22:A 0.2584
*END

*D_NET TAUNET_41 1.1848
*CONN
*I inst_494:ZN O
*I TAUGATE_41:A I
*CAP
1 inst_494:ZN 0.4333
2 TAUNET_41:1 0.3416
3 TAUGATE_41:A 0.4099
*RES
2 inst_494:ZN TAUNET_41:1 0.1540
3 TAUNET_41:1 TAUGATE_41:A 0.0325
*END

*D_NET net_226 1.0242
*CONN
*I TAUGATE_56:Z O
*I inst_278:A2 I
*CAP
1 TAUGATE_56:Z 0.1850
2 net_226:1 0.2746
3 net_226:2 0.4228
4 inst_278:A2 0.1417
*RES
2 TAUGATE_56:Z net_226:1 0.3754
3 net_226:1 net_226:2 0.2016
4 net_226:2 inst_278:A2 0.0068
*END

*D_NET TAUNET_30 1.7534
*CONN
*I inst_382:ZN O
*I TAUGATE_30:A I
*CAP
1 inst_382:ZN 0.4220
2 TAUNET_30:1 0.0580
3 TAUNET_30:2 0.3810
4 TAUNET_30:3 0.2195
5 TAUNET_30:4 0.2042
6 TAUNET_30:5 0.2030
7 TAUGATE_30:A 0.2656
*RES
2 inst_382:ZN TAUNET_30:1 0.4413
3 TAUNET_30:1 TAUNET_30:2 0.1336
4 TAUNET_30:2 TAUNET_30:3 0.4042
5 TAUNET_30:3 TAUNET_30:4 0.0451
6 TAUNET_30:4 TAUNET_30:5 0.2391
7 TAUNET_30:5 TAUGATE_30:A 0.0321
*END

*D_NET TAUNET_58 1.0327
*CONN
*I inst_553:Q O
*I TAUGATE_58:A I
*CAP
1 inst_553:Q 0.0857
2 TAUNET_58:1 0.2245
3 TAUNET_58:2 0.4797
4 TAUNET_58:3 0.0551
5 TAUGATE_58:A 0.1877
*RES
2 inst_553:Q TAUNET_58:1 0.0973
3 TAUNET_58:1 TAUNET_58:2 0.4235
4 TAUNET_58:2 TAUNET_58:3 0.1903
5 TAUNET_58:3 TAUGATE_58:A 0.2143
*END

*D_NET net_555 2.5084
*CONN
*I TAUGATE_22:Z O
*I inst_505:A I
*I inst_356:A I
*CAP
1 TAUGATE_22:Z 0.2421
2 net_555:1 0.2497
3 net_555:2 0.2766
4 net_555:3 0.3086
5 net_555:4 0.2353
6 net_555:5 0.4838
7 inst_505:A 0.0722
8 net_555:6 0.0224
9 net_555:7 0.3933
10 inst_356:A 0.2244
*RES
2 TAUGATE_22:Z net_555:1 0.3539
3 net_555:1 net_555:2 0.3446
4 net_555:2 net_555:3 0.0192
5 net_555:3 net_555:4 0.1341
6 net_555:4 net_555:5 0.4054
7 net_555:5 inst_505:A 0.3681
8 net_555:2 net_555:6 0.4154
9 net_555:6 net_555:7 0.1374
10 net_555:7 inst_356:A 0.1713
*END

*D_NET net_238 2.7433
*CONN
*I TAUGATE_54:Z O
*I inst_139:A1 I
*I inst_269:A2 I
*CAP
1 TAUGATE_54:Z 0.3119
2 net_238:1 0.3583
3 net_238:2 0.0251
4 net_238:3 0.0071
5 net_238:4 0.2242
6 net_238:5 0.4834
7 inst_139:A1 0.4589
8 net_238:6 0.4409
9 inst_269:A2 0.4335
*RES
2 TAUGATE_54:Z net_238:1 0.0098
3 net_238:1 net_238:2 0.3264
4 net_238:2 net_238:3 0.2846
5 net_238:3 net_238:4 0.4721
6 net_238:4 net_238:5 0.1185
7 net_238:5 inst_139:A1 0.4585
8 net_238:5 net_238:6 0.3158
9 net_238:6 inst_269:A2 0.2513
*END

*D_NET net_474 1.1989
*CONN
*I TAUGATE_59:Z O
*I inst_208:A1 I
*CAP
1 TAUGATE_59:Z 0.1640
2 net_474:1 0.3155
3 net_474:2 0.4909
4 inst_208:A1 0.2285
*RES
2 TAUGATE_59:Z net_474:1 0.2293
3 net_474:1 net_474:2 0.4514
4 net_474:2 inst_208:A1 0.1489
*END

*D_NET TAUNET_52 1.3305
*CONN
*I inst_171:ZN O
*I TAUGATE_52:A I
*CAP
1 inst_171:ZN 0.1815
2 TAUNET_52:1 0.3238
3 TAUNET_52:2 0.1536
4 TAUNET_52:3 0.2744
5 TAUGATE_52:A 0.3973
*RES
2 inst_171:ZN TAUNET_52:1 0.0682
3 TAUNET_52:1 TAUNET_52:2 0.0813
4 TAUNET_52:2 TAUNET_52:3 0.2235
5 TAUNET_52:3 TAUGATE_52:A 0.0018
*END

*D_NET TAUNET_59 1.8273
*CONN
*I inst_102:ZN O
*I TAUGATE_59:A I
*CAP
1 inst_102:ZN 0.4580
2 TAUNET_59:1 0.4660
3 TAUNET_59:2 0.3296
4 TAUNET_59:3 0.2711
5 TAUNET_59:4 0.1177
6 TAUNET_59:5 0.1130
7 TAUGATE_59:A 0.0719
*RES