*SPEF "IEEE 1481-1998"
*DESIGN "s1196"
*DATE "Tue Nov 25 16:55:00 2014"
*VENDOR "TAU 2015 Contest"
*PROGRAM "Benchmark Parasitic Generator"
*VERSION "0.0"
*DESIGN_FLOW "NETLIST_TYPE_VERILOG"
*DIVIDER /
*DELIMITER :
*BUS_DELIMITER [ ]
*T_UNIT 1 PS
*C_UNIT 1 FF
*R_UNIT 1 KOHM
*L_UNIT 1 UH

*D_NET net_568 0.2610
*CONN
*I inst_125:ZN O
*I inst_339:A1 I
*CAP
1 inst_125:ZN 0.0166
2 inst_339:A1 0.0166
3 net_568:1 0.0176
4 net_568:2 0.0176
5 net_568:3 0.0729
6 net_568:4 0.0729
7 net_568:5 0.0234
8 net_568:6 0.0234
*RES
2 inst_125:ZN net_568:6 0.0050
3 net_568:1 inst_339:A1 0.0050
4 net_568:2 net_568:1 0.0010
5 net_568:3 net_568:2 0.0050
6 net_568:4 net_568:3 0.0047
7 net_568:5 net_568:4 0.0050
8 net_568:6 net_568:5 0.0015
*END

*D_NET net_47 0.6837
*CONN
*I inst_418:ZN O
*I inst_432:A I
*I inst_138:A2 I
*CAP
1 inst_418:ZN 0.0160
2 inst_432:A 0.0166
3 inst_138:A2 0.0143
4 net_47:1 0.0227
5 net_47:2 0.0167
6 net_47:3 0.0167
7 net_47:4 0.1580
8 net_47:5 0.1652
9 net_47:6 0.1015
10 net_47:7 0.1015
11 net_47:8 0.0244
12 net_47:9 0.0152
13 net_47:10 0.0148
*RES
2 inst_138:A2 net_47:1 0.0021
3 net_47:2 net_47:1 0.0050
4 net_47:2 net_47:3 0.0010
5 net_47:4 net_47:3 0.0050
6 net_47:4 net_47:5 0.0122
7 net_47:5 net_47:10 0.0010
8 net_47:5 net_47:6 0.0050
9 net_47:7 inst_432:A 0.0050
10 net_47:7 net_47:6 0.0120
11 net_47:8 inst_418:ZN 0.0021
12 net_47:9 net_47:8 0.0050
13 net_47:10 net_47:9 0.0050
*END

*D_NET net_416 1.0314
*CONN
*I inst_485:ZN O
*I inst_88:A1 I
*I inst_172:A1 I
*I inst_25:A2 I
*CAP
1 inst_485:ZN 0.0166
2 inst_88:A1 0.0154
3 inst_172:A1 0.0166
4 inst_25:A2 0.0166
5 net_416:1 0.0238
6 net_416:2 0.1304
7 net_416:3 0.0600
8 net_416:4 0.0447
9 net_416:5 0.0447
10 net_416:6 0.0578
11 net_416:7 0.1029
12 net_416:8 0.0270
13 net_416:9 0.0308
14 net_416:10 0.0448
15 net_416:11 0.0448
16 net_416:12 0.0566
17 net_416:13 0.0152
18 net_416:14 0.0130
19 net_416:15 0.0130
20 net_416:16 0.0775
21 net_416:17 0.0775
22 net_416:18 0.0098
23 net_416:19 0.0098
24 net_416:20 0.0819
*RES
2 net_416:1 inst_88:A1 0.0021
3 net_416:2 net_416:1 0.0050
4 net_416:2 net_416:20 0.0080
5 net_416:3 net_416:2 0.0075
6 net_416:3 net_416:4 0.0050
7 net_416:5 net_416:4 0.0041
8 net_416:5 net_416:6 0.0050
9 net_416:7 inst_25:A2 0.0050
10 net_416:7 net_416:6 0.0060
11 net_416:8 inst_172:A1 0.0050
12 net_416:8 net_416:9 0.0020
13 net_416:10 net_416:9 0.0050
14 net_416:11 net_416:10 0.0054
15 net_416:12 net_416:7 0.0070
16 net_416:12 net_416:11 0.0050
17 net_416:13 inst_485:ZN 0.0050
18 net_416:14 net_416:13 0.0050
19 net_416:14 net_416:15 0.0010
20 net_416:16 net_416:15 0.0050
21 net_416:17 net_416:16 0.0029
22 net_416:18 net_416:17 0.0050
23 net_416:18 net_416:19 0.0010
24 net_416:20 net_416:19 0.0050
*END

*D_NET net_215 0.3230
*CONN
*I inst_469:ZN O
*I inst_138:A1 I
*I inst_90:A2 I
*CAP
1 inst_469:ZN 0.0166
2 inst_138:A1 0.0166
3 inst_90:A2 0.0076
4 net_215:1 0.0159
5 net_215:2 0.0181
6 net_215:3 0.0181
7 net_215:4 0.0463
8 net_215:5 0.0463
9 net_215:6 0.0164
10 net_215:7 0.0238
11 net_215:8 0.0211
12 net_215:9 0.0393
13 net_215:10 0.0370
*RES
2 inst_138:A1 net_215:7 0.0050
3 inst_90:A2 net_215:1 0.0010
4 net_215:2 net_215:1 0.0050
5 net_215:2 net_215:3 0.0010
6 net_215:4 net_215:3 0.0050
7 net_215:4 net_215:5 0.0041
8 net_215:6 net_215:5 0.0050
9 net_215:7 net_215:6 0.0010
10 net_215:8 net_215:7 0.0010
11 net_215:8 net_215:9 0.0010
12 net_215:10 inst_469:ZN 0.0050
13 net_215:10 net_215:9 0.0020
*END

*D_NET net_54 0.3967
*CONN
*I inst_195:ZN O
*I inst_200:A1 I
*I inst_235:A2 I
*CAP
1 inst_195:ZN 0.0463
2 inst_200:A1 0.0296
3 inst_235:A2 0.0084
4 net_54:1 0.0167
5 net_54:2 0.1479
6 net_54:3 0.1479
*RES
2 inst_195:ZN inst_200:A1 0.0052
3 inst_195:ZN net_54:3 0.0050
4 net_54:1 inst_235:A2 0.0010
5 net_54:2 net_54:1 0.0050
6 net_54:2 net_54:3 0.0160
*END

*D_NET net_526 2.8473
*CONN
*I inst_50:ZN O
*I inst_361:A I
*I inst_508:A I
*I inst_362:A I
*I inst_61:A2 I
*CAP
1 inst_361:A 0.0166
2 inst_508:A 0.0072
3 inst_362:A 0.0077
4 inst_50:ZN 0.0166
5 inst_61:A2 0.0166
6 net_526:1 0.0152
7 net_526:2 0.0141
8 net_526:3 0.0141
9 net_526:4 0.9476
10 net_526:5 0.7444
11 net_526:6 0.1652
12 net_526:7 0.1317
13 net_526:8 0.0218
14 net_526:9 0.0180
15 net_526:10 0.0155
16 net_526:11 0.0517
17 net_526:12 0.0517
18 net_526:13 0.0793
19 net_526:14 0.1348
20 net_526:15 0.0631
21 net_526:16 0.2032
22 net_526:17 0.0160
23 net_526:18 0.0152
24 net_526:19 0.0195
25 net_526:20 0.0195
26 net_526:21 0.0411
*RES
2 net_526:1 inst_361:A 0.0050
3 net_526:2 net_526:1 0.0050
4 net_526:2 net_526:3 0.0010
5 net_526:4 net_526:3 0.0050
6 net_526:4 net_526:5 0.0227
7 net_526:6 net_526:5 0.0050
8 net_526:6 net_526:7 0.0076
9 net_526:7 net_526:8 0.0050
10 net_526:9 inst_61:A2 0.0050
11 net_526:9 net_526:8 0.0010
12 net_526:10 inst_508:A 0.0010
13 net_526:11 net_526:10 0.0050
14 net_526:11 net_526:12 0.0035
15 net_526:13 net_526:12 0.0050
16 net_526:14 net_526:13 0.0061
17 net_526:14 net_526:18 0.0050
18 net_526:15 net_526:14 0.0062
19 net_526:16 net_526:4 0.0069
20 net_526:16 net_526:15 0.0050
21 net_526:17 inst_362:A 0.0010
22 net_526:18 net_526:17 0.0050
23 net_526:19 inst_50:ZN 0.0050
24 net_526:19 net_526:20 0.0010
25 net_526:21 net_526:6 0.0019
26 net_526:21 net_526:20 0.0050
*END

*D_NET G546 0.6191
*CONN
*I inst_563:QN O
*P G546 O
*CAP
1 G546 0.0012
2 inst_563:QN 0.0166
3 G546:1 0.2175
4 G546:2 0.2213
5 G546:3 0.0750
6 G546:4 0.0750
7 G546:5 0.0126
*RES
2 G546 G546:5 0.0010
3 G546:1 inst_563:QN 0.0050
4 G546:2 G546:1 0.0190
5 G546:3 G546:2 0.0050
6 G546:4 G546:3 0.0099
7 G546:5 G546:4 0.0050
*END

*D_NET net_429 0.2601
*CONN
*I inst_190:ZN O
*I inst_125:A2 I
*CAP
1 inst_190:ZN 0.0166
2 inst_125:A2 0.0166
3 net_429:1 0.0186
4 net_429:2 0.0186
5 net_429:3 0.0791
6 net_429:4 0.0791
7 net_429:5 0.0157
8 net_429:6 0.0157
*RES
2 inst_190:ZN net_429:6 0.0050
3 net_429:1 inst_125:A2 0.0050
4 net_429:1 net_429:2 0.0010
5 net_429:3 net_429:2 0.0050
6 net_429:3 net_429:4 0.0047
7 net_429:5 net_429:4 0.0050
8 net_429:6 net_429:5 0.0010
*END

*D_NET net_557 0.7721
*CONN
*I inst_504:ZN O
*I inst_355:A I
*I inst_190:A1 I
*CAP
1 inst_504:ZN 0.0420
2 inst_355:A 0.0166
3 inst_190:A1 0.0166
4 net_557:1 0.0189
5 net_557:2 0.0311
6 net_557:3 0.1318
7 net_557:4 0.1195
8 net_557:5 0.0282
9 net_557:6 0.0305
10 net_557:7 0.0228
11 net_557:8 0.0228
12 net_557:9 0.0977
13 net_557:10 0.0977
14 net_557:11 0.0479
15 net_557:12 0.0479
*RES
2 inst_504:ZN net_557:5 0.0031
3 inst_190:A1 net_557:12 0.0050
4 net_557:1 inst_355:A 0.0050
5 net_557:1 net_557:2 0.0010
6 net_557:3 net_557:2 0.0014
7 net_557:3 net_557:4 0.0120
8 net_557:5 net_557:4 0.0050
9 net_557:6 inst_504:ZN 0.0031
10 net_557:7 net_557:6 0.0050
11 net_557:7 net_557:8 0.0015
12 net_557:9 net_557:8 0.0050
13 net_557:10 net_557:9 0.0075
14 net_557:11 net_557:10 0.0050
15 net_557:11 net_557:12 0.0045
*END

*D_NET net_129 0.4136
*CONN
*I inst_64:ZN O
*I inst_88:A2 I
*CAP
1 inst_64:ZN 0.0118
2 inst_88:A2 0.0069
3 net_129:1 0.0201
4 net_129:2 0.1798
5 net_129:3 0.1798
6 net_129:4 0.0153
*RES
2 inst_88:A2 net_129:4 0.0010
3 net_129:1 inst_64:ZN 0.0021
4 net_129:2 net_129:1 0.0050
5 net_129:3 net_129:2 0.0150
6 net_129:4 net_129:3 0.0050
*END

*D_NET net_373 0.1820
*CONN
*I inst_110:ZN O
*I inst_111:A2 I
*CAP
1 inst_110:ZN 0.0119
2 inst_111:A2 0.0166
3 net_373:1 0.0202
4 net_373:2 0.0152
5 net_373:3 0.0441
6 net_373:4 0.0441
7 net_373:5 0.0149
8 net_373:6 0.0149
*RES
2 inst_111:A2 net_373:6 0.0050
3 net_373:1 inst_110:ZN 0.0021
4 net_373:2 net_373:1 0.0050
5 net_373:3 net_373:2 0.0050
6 net_373:4 net_373:3 0.0054
7 net_373:5 net_373:4 0.0050
8 net_373:5 net_373:6 0.0010
*END

*D_NET net_119 0.4809
*CONN
*I inst_391:ZN O
*I inst_132:A2 I
*I inst_277:A1 I
*CAP
1 inst_391:ZN 0.0166
2 inst_132:A2 0.0166
3 inst_277:A1 0.0166
4 net_119:1 0.0221
5 net_119:2 0.0221
6 net_119:3 0.1345
7 net_119:4 0.0710
8 net_119:5 0.0152
9 net_119:6 0.0475
10 net_119:7 0.0475
11 net_119:8 0.0711
*RES
2 net_119:1 inst_277:A1 0.0050
3 net_119:2 net_119:1 0.0015
4 net_119:3 net_119:2 0.0050
5 net_119:3 net_119:8 0.0054
6 net_119:4 net_119:3 0.0061
7 net_119:4 net_119:5 0.0050
8 net_119:5 inst_132:A2 0.0050
9 net_119:6 inst_391:ZN 0.0050
10 net_119:6 net_119:7 0.0030
11 net_119:8 net_119:7 0.0050
*END

*D_NET net_98 1.3568
*CONN
*I inst_443:ZN O
*I inst_476:A I
*I inst_257:A1 I
*I inst_117:A1 I
*I inst_86:A2 I
*I inst_313:A1 I
*CAP
1 inst_443:ZN 0.0068
2 inst_476:A 0.0166
3 inst_257:A1 0.0166
4 inst_117:A1 0.0166
5 inst_86:A2 0.0236
6 inst_313:A1 0.0166
7 net_98:1 0.1581
8 net_98:2 0.0388
9 net_98:3 0.0210
10 net_98:4 0.0210
11 net_98:5 0.0308
12 net_98:6 0.0383
13 net_98:7 0.0189
14 net_98:8 0.0093
15 net_98:9 0.0093
16 net_98:10 0.0972
17 net_98:11 0.0972
18 net_98:12 0.0303
19 net_98:13 0.0303
20 net_98:14 0.0270
21 net_98:15 0.0270
22 net_98:16 0.0762
23 net_98:17 0.0184
24 net_98:18 0.0152
25 net_98:19 0.0319
26 net_98:20 0.0152
27 net_98:21 0.0654
28 net_98:22 0.0152
29 net_98:23 0.0716
30 net_98:24 0.0376
31 net_98:25 0.1307
32 net_98:26 0.0151
33 net_98:27 0.0356
34 net_98:28 0.0356
35 net_98:29 0.0416
*RES
2 inst_86:A2 net_98:19 0.0031
3 net_98:1 inst_476:A 0.0050
4 net_98:1 net_98:25 0.0155
5 net_98:2 net_98:1 0.0045
6 net_98:2 net_98:3 0.0050
7 net_98:3 net_98:4 0.0014
8 net_98:4 net_98:5 0.0050
9 net_98:6 inst_257:A1 0.0050
10 net_98:6 net_98:5 0.0020
11 net_98:7 net_98:6 0.0010
12 net_98:7 net_98:8 0.0050
13 net_98:8 net_98:9 0.0010
14 net_98:9 net_98:10 0.0050
15 net_98:11 net_98:10 0.0036
16 net_98:11 net_98:12 0.0050
17 net_98:13 net_98:12 0.0015
18 net_98:13 net_98:14 0.0050
19 net_98:15 net_98:14 0.0010
20 net_98:15 net_98:16 0.0050
21 net_98:16 net_98:17 0.0010
22 net_98:17 net_98:18 0.0050
23 net_98:18 inst_313:A1 0.0050
24 net_98:20 net_98:19 0.0050
25 net_98:21 net_98:16 0.0034
26 net_98:21 net_98:20 0.0050
27 net_98:22 inst_117:A1 0.0050
28 net_98:23 net_98:22 0.0050
29 net_98:23 net_98:29 0.0027
30 net_98:24 net_98:23 0.0041
31 net_98:24 net_98:25 0.0050
32 net_98:26 inst_443:ZN 0.0010
33 net_98:27 net_98:26 0.0050
34 net_98:28 net_98:27 0.0025
35 net_98:29 net_98:28 0.0050
*END

*D_NET net_151 0.3457
*CONN
*I inst_70:ZN O
*I inst_159:A1 I
*CAP
1 inst_70:ZN 0.0166
2 inst_159:A1 0.0166
3 net_151:1 0.0464
4 net_151:2 0.0487
5 net_151:3 0.1098
6 net_151:4 0.1075
*RES
2 inst_159:A1 net_151:4 0.0050
3 net_151:1 inst_70:ZN 0.0050
4 net_151:2 net_151:1 0.0055
5 net_151:2 net_151:3 0.0010
6 net_151:4 net_151:3 0.0120
*END

*D_NET net_356 0.1815
*CONN
*I inst_299:ZN O
*I inst_130:A2 I
*CAP
1 inst_299:ZN 0.0317
2 inst_130:A2 0.0166
3 net_356:1 0.0400
4 net_356:2 0.0152
5 net_356:3 0.0314
6 net_356:4 0.0314
7 net_356:5 0.0152
*RES
2 inst_299:ZN net_356:1 0.0041
3 inst_130:A2 net_356:5 0.0050
4 net_356:2 net_356:1 0.0050
5 net_356:3 net_356:2 0.0050
6 net_356:3 net_356:4 0.0020
7 net_356:5 net_356:4 0.0050
*END

*D_NET net_53 0.1066
*CONN
*I inst_437:ZN O
*I inst_134:A1 I
*CAP
1 inst_437:ZN 0.0166
2 inst_134:A1 0.0166
3 net_53:1 0.0152
4 net_53:2 0.0215
5 net_53:3 0.0215
6 net_53:4 0.0152
*RES
2 inst_437:ZN net_53:4 0.0050
3 net_53:1 inst_134:A1 0.0050
4 net_53:2 net_53:1 0.0050
5 net_53:2 net_53:3 0.0014
6 net_53:4 net_53:3 0.0050
*END

*D_NET net_452 0.2853
*CONN
*I inst_179:ZN O
*I inst_340:A1 I
*CAP
1 inst_179:ZN 0.0166
2 inst_340:A1 0.0166
3 net_452:1 0.0165
4 net_452:2 0.0165
5 net_452:3 0.0785
6 net_452:4 0.0785
7 net_452:5 0.0310
8 net_452:6 0.0310
*RES
2 inst_340:A1 net_452:6 0.0050
3 net_452:1 inst_179:ZN 0.0050
4 net_452:1 net_452:2 0.0010
5 net_452:3 net_452:2 0.0050
6 net_452:3 net_452:4 0.0081
7 net_452:5 net_452:4 0.0050
8 net_452:5 net_452:6 0.0020
*END

*D_NET net_210 1.1778
*CONN
*I inst_396:ZN O
*I inst_408:A I
*I inst_412:A I
*I inst_251:A1 I
*I inst_43:A2 I
*I inst_152:A3 I
*CAP
1 inst_396:ZN 0.0318
2 inst_408:A 0.0166
3 inst_412:A 0.0166
4 inst_251:A1 0.0166
5 inst_43:A2 0.0166
6 inst_152:A3 0.0166
7 net_210:1 0.0181
8 net_210:2 0.0181
9 net_210:3 0.0420
10 net_210:4 0.0420
11 net_210:5 0.0349
12 net_210:6 0.0349
13 net_210:7 0.0234
14 net_210:8 0.0204
15 net_210:9 0.0204
16 net_210:10 0.0342
17 net_210:11 0.0342
18 net_210:12 0.0674
19 net_210:13 0.0299
20 net_210:14 0.0612
21 net_210:15 0.0612
22 net_210:16 0.0152
23 net_210:17 0.1359
24 net_210:18 0.0152
25 net_210:19 0.1145
26 net_210:20 0.0296
27 net_210:21 0.1022
28 net_210:22 0.0152
29 net_210:23 0.0925
*RES
2 inst_396:ZN net_210:6 0.0050
3 net_210:1 inst_412:A 0.0050
4 net_210:1 net_210:2 0.0010
5 net_210:3 net_210:2 0.0050
6 net_210:4 net_210:3 0.0027
7 net_210:5 net_210:4 0.0050
8 net_210:5 net_210:6 0.0020
9 net_210:7 inst_396:ZN 0.0021
10 net_210:8 net_210:7 0.0050
11 net_210:9 net_210:8 0.0015
12 net_210:10 net_210:9 0.0050
13 net_210:11 net_210:10 0.0034
14 net_210:12 net_210:11 0.0050
15 net_210:12 net_210:13 0.0030
16 net_210:13 net_210:14 0.0050
17 net_210:15 net_210:14 0.0054
18 net_210:15 net_210:16 0.0050
19 net_210:16 inst_43:A2 0.0050
20 net_210:17 inst_408:A 0.0050
21 net_210:17 net_210:12 0.0030
22 net_210:18 inst_251:A1 0.0050
23 net_210:19 net_210:18 0.0050
24 net_210:19 net_210:20 0.0014
25 net_210:20 net_210:21 0.0050
26 net_210:21 net_210:17 0.0070
27 net_210:22 inst_152:A3 0.0050
28 net_210:23 net_210:19 0.0041
29 net_210:23 net_210:22 0.0050
*END

*D_NET net_545 0.7855
*CONN
*I inst_147:ZN O
*I inst_300:A1 I
*CAP
1 inst_147:ZN 0.0166
2 inst_300:A1 0.0166
3 net_545:1 0.0301
4 net_545:2 0.0301
5 net_545:3 0.3366
6 net_545:4 0.3404
7 net_545:5 0.0152
*RES
2 inst_300:A1 net_545:5 0.0050
3 net_545:1 inst_147:ZN 0.0050
4 net_545:1 net_545:2 0.0030
5 net_545:3 net_545:2 0.0050
6 net_545:3 net_545:4 0.0292
7 net_545:5 net_545:4 0.0050
*END

*D_NET net_284 0.4279
*CONN
*I inst_581:ZN O
*I inst_32:A1 I
*CAP
1 inst_581:ZN 0.0072
2 inst_32:A1 0.0166
3 net_284:1 0.0155
4 net_284:2 0.0336
5 net_284:3 0.0336
6 net_284:4 0.0093
7 net_284:5 0.0093
8 net_284:6 0.0523
9 net_284:7 0.0523
10 net_284:8 0.0235
11 net_284:9 0.0235
12 net_284:10 0.0756
13 net_284:11 0.0756
*RES
2 inst_581:ZN net_284:1 0.0010
3 inst_32:A1 net_284:11 0.0050
4 net_284:2 net_284:1 0.0050
5 net_284:3 net_284:2 0.0035
6 net_284:4 net_284:3 0.0050
7 net_284:4 net_284:5 0.0010
8 net_284:6 net_284:5 0.0050
9 net_284:7 net_284:6 0.0011
10 net_284:8 net_284:7 0.0050
11 net_284:9 net_284:8 0.0015
12 net_284:10 net_284:9 0.0050
13 net_284:11 net_284:10 0.0080
*END

*D_NET net_168 1.3862
*CONN
*I inst_236:ZN O
*I inst_11:A2 I
*I inst_12:A2 I
*I inst_13:A2 I
*I inst_121:A3 I
*CAP
1 inst_236:ZN 0.0081
2 inst_11:A2 0.0166
3 inst_12:A2 0.0166
4 inst_13:A2 0.0166
5 inst_121:A3 0.0166
6 net_168:1 0.0152
7 net_168:2 0.0118
8 net_168:3 0.0576
9 net_168:4 0.4083
10 net_168:5 0.4083
11 net_168:6 0.0145
12 net_168:7 0.0145
13 net_168:8 0.0706
14 net_168:9 0.0706
15 net_168:10 0.0152
16 net_168:11 0.0466
17 net_168:12 0.0924
18 net_168:13 0.0367
19 net_168:14 0.0164
20 net_168:15 0.0329
*RES
2 inst_236:ZN net_168:14 0.0010
3 net_168:1 inst_13:A2 0.0050
4 net_168:2 net_168:1 0.0050
5 net_168:3 net_168:2 0.0010
6 net_168:3 net_168:4 0.0050
7 net_168:4 net_168:5 0.0109
8 net_168:5 net_168:6 0.0050
9 net_168:6 net_168:7 0.0010
10 net_168:7 net_168:8 0.0050
11 net_168:8 net_168:9 0.0075
12 net_168:9 inst_121:A3 0.0050
13 net_168:10 inst_11:A2 0.0050
14 net_168:11 net_168:10 0.0050
15 net_168:11 net_168:12 0.0034
16 net_168:12 net_168:3 0.0050
17 net_168:13 inst_12:A2 0.0050
18 net_168:13 net_168:12 0.0050
19 net_168:13 net_168:15 0.0035
20 net_168:15 net_168:14 0.0050
*END

*D_NET net_560 0.1199
*CONN
*I inst_354:ZN O
*I inst_226:A2 I
*CAP
1 inst_354:ZN 0.0166
2 inst_226:A2 0.0166
3 net_560:1 0.0239
4 net_560:2 0.0262
5 net_560:3 0.0194
6 net_560:4 0.0171
*RES
2 inst_354:ZN net_560:4 0.0050
3 net_560:1 inst_226:A2 0.0050
4 net_560:1 net_560:2 0.0015
5 net_560:2 net_560:3 0.0010
6 net_560:3 net_560:4 0.0010
*END

*D_NET G6 6.2691
*CONN
*P G6 I
*I inst_367:A I
*I inst_515:A I
*I inst_372:A I
*I inst_568:A2 I
*I inst_229:A1 I
*I inst_236:A1 I
*I inst_239:A1 I
*I inst_250:A1 I
*I inst_102:A2 I
*CAP
1 G6 0.0130
2 inst_367:A 0.0069
3 inst_515:A 0.0208
4 inst_372:A 0.0166
5 inst_568:A2 0.0166
6 inst_229:A1 0.0166
7 inst_236:A1 0.0166
8 inst_239:A1 0.0166
9 inst_250:A1 0.0166
10 inst_102:A2 0.0166
11 G6:1 0.0153
12 G6:2 0.0451
13 G6:3 0.0474
14 G6:4 0.0239
15 G6:5 0.0566
16 G6:6 0.0464
17 G6:7 0.0143
18 G6:8 0.0143
19 G6:9 0.2701
20 G6:10 0.2922
21 G6:11 0.0221
22 G6:12 0.0970
23 G6:13 0.0970
24 G6:14 0.0881
25 G6:15 0.0587
26 G6:16 0.0292
27 G6:17 0.0152
28 G6:18 0.0125
29 G6:19 0.0125
30 G6:20 0.0403
31 G6:21 0.0403
32 G6:22 0.2560
33 G6:23 0.0335
34 G6:24 0.4774
35 G6:25 0.4711
36 G6:26 0.3456
37 G6:27 0.3456
38 G6:28 0.1165
39 G6:29 0.0927
40 G6:30 0.0172
41 G6:31 0.0172
42 G6:32 0.0100
43 G6:33 0.0100
44 G6:34 0.0617
45 G6:35 0.0617
46 G6:36 0.0267
47 G6:37 0.0477
48 G6:38 0.0286
49 G6:39 0.0177
50 G6:40 0.0238
51 G6:41 0.0627
52 G6:42 0.0665
53 G6:43 0.0274
54 G6:44 0.0274
55 G6:45 0.0120
56 G6:46 0.0120
57 G6:47 0.0177
58 G6:48 0.0208
59 G6:49 0.0208
60 G6:50 0.0365
61 G6:51 0.0365
62 G6:52 0.0370
63 G6:53 0.0568
64 G6:54 0.0568
65 G6:55 0.0092
66 G6:56 0.0092
67 G6:57 0.0147
68 G6:58 0.0764
69 G6:59 0.2288
70 G6:60 0.0206
71 G6:61 0.0108
72 G6:62 0.0108
73 G6:63 0.4011
74 G6:64 0.4011
75 G6:65 0.2888
76 G6:66 0.2888
77 G6:67 0.0618
*RES
2 G6 G6:60 0.0010
3 G6:1 inst_367:A 0.0010
4 G6:2 G6:1 0.0050
5 G6:3 G6:2 0.0030
6 G6:4 G6:3 0.0010
7 G6:5 inst_568:A2 0.0050
8 G6:5 G6:4 0.0015
9 G6:6 G6:5 0.0030
10 G6:7 G6:6 0.0050
11 G6:7 G6:8 0.0010
12 G6:9 G6:8 0.0050
13 G6:10 G6:9 0.0071
14 G6:11 G6:10 0.0010
15 G6:11 G6:12 0.0050
16 G6:12 G6:13 0.0062
17 G6:13 G6:14 0.0050
18 G6:14 G6:52 0.0040
19 G6:15 inst_250:A1 0.0050
20 G6:15 G6:14 0.0045
21 G6:16 inst_515:A 0.0031
22 G6:17 G6:16 0.0050
23 G6:18 G6:17 0.0050
24 G6:19 G6:18 0.0010
25 G6:20 G6:19 0.0050
26 G6:20 G6:21 0.0011
27 G6:22 G6:21 0.0030
28 G6:22 G6:23 0.0010
29 G6:24 G6:23 0.0010
30 G6:24 G6:25 0.0172
31 G6:25 G6:26 0.0030
32 G6:25 G6:47 0.0030
33 G6:26 G6:27 0.0143
34 G6:27 G6:28 0.0030
35 G6:28 G6:29 0.0029
36 G6:29 G6:10 0.0030
37 G6:30 inst_372:A 0.0050
38 G6:31 G6:30 0.0010
39 G6:32 G6:31 0.0050
40 G6:32 G6:33 0.0010
41 G6:34 G6:33 0.0050
42 G6:35 G6:34 0.0015
43 G6:36 G6:35 0.0050
44 G6:36 G6:37 0.0019
45 G6:37 G6:38 0.0021
46 G6:37 G6:42 0.0050
47 G6:39 G6:38 0.0050
48 G6:40 G6:28 0.0010
49 G6:40 G6:39 0.0030
50 G6:41 inst_239:A1 0.0050
51 G6:41 G6:42 0.0055
52 G6:43 inst_236:A1 0.0050
53 G6:43 G6:44 0.0015
54 G6:45 G6:44 0.0050
55 G6:45 G6:46 0.0010
56 G6:47 G6:46 0.0050
57 G6:48 inst_229:A1 0.0050
58 G6:49 G6:48 0.0010
59 G6:50 G6:49 0.0050
60 G6:51 G6:50 0.0041
61 G6:52 G6:51 0.0050
62 G6:53 inst_102:A2 0.0050
63 G6:54 G6:53 0.0040
64 G6:55 G6:54 0.0050
65 G6:55 G6:56 0.0010
66 G6:57 G6:56 0.0050
67 G6:58 G6:57 0.0010
68 G6:58 G6:59 0.0030
69 G6:59 G6:22 0.0088
70 G6:61 G6:60 0.0050
71 G6:62 G6:61 0.0010
72 G6:63 G6:62 0.0050
73 G6:63 G6:64 0.0141
74 G6:65 G6:64 0.0030
75 G6:65 G6:66 0.0113
76 G6:67 G6:58 0.0013
77 G6:67 G6:66 0.0030
*END

*D_NET net_477 0.1544
*CONN
*I inst_389:ZN O
*I inst_40:A2 I
*CAP
1 inst_389:ZN 0.0296
2 inst_40:A2 0.0166
3 net_477:1 0.0152
4 net_477:2 0.0199
5 net_477:3 0.0199
6 net_477:4 0.0152
7 net_477:5 0.0379
*RES
2 inst_389:ZN net_477:5 0.0031
3 net_477:1 inst_40:A2 0.0050
4 net_477:2 net_477:1 0.0050
5 net_477:3 net_477:2 0.0014
6 net_477:4 net_477:3 0.0050
7 net_477:5 net_477:4 0.0050
*END

*D_NET net_439 0.6950
*CONN
*I inst_323:ZN O
*I inst_180:A3 I
*CAP
1 inst_323:ZN 0.0166
2 inst_180:A3 0.0166
3 net_439:1 0.0331
4 net_439:2 0.0331
5 net_439:3 0.2817
6 net_439:4 0.2817
7 net_439:5 0.0162
8 net_439:6 0.0162
*RES
2 inst_180:A3 net_439:6 0.0050
3 net_439:1 inst_323:ZN 0.0050
4 net_439:2 net_439:1 0.0020
5 net_439:3 net_439:2 0.0050
6 net_439:3 net_439:4 0.0278
7 net_439:5 net_439:4 0.0050
8 net_439:6 net_439:5 0.0010
*END

*D_NET net_385 0.5044
*CONN
*I inst_162:ZN O
*I inst_180:A2 I
*CAP
1 inst_162:ZN 0.0166
2 inst_180:A2 0.0143
3 net_385:1 0.0321
4 net_385:2 0.0321
5 net_385:3 0.1722
6 net_385:4 0.1722
7 net_385:5 0.0191
8 net_385:6 0.0191
9 net_385:7 0.0268
*RES
2 net_385:1 inst_162:ZN 0.0050
3 net_385:2 net_385:1 0.0035
4 net_385:3 net_385:2 0.0050
5 net_385:3 net_385:4 0.0143
6 net_385:5 net_385:4 0.0050
7 net_385:6 net_385:5 0.0010
8 net_385:7 inst_180:A2 0.0021
9 net_385:7 net_385:6 0.0050
*END

*D_NET net_259 0.4770
*CONN
*I inst_258:ZN O
*I inst_91:A2 I
*I inst_176:A2 I
*CAP
1 inst_258:ZN 0.0070
2 inst_91:A2 0.0166
3 inst_176:A2 0.0242
4 net_259:1 0.0325
5 net_259:2 0.0362
6 net_259:3 0.0562
7 net_259:4 0.0154
8 net_259:5 0.0152
9 net_259:6 0.0427
10 net_259:7 0.0427
11 net_259:8 0.0506
12 net_259:9 0.0506
13 net_259:10 0.0278
14 net_259:11 0.0278
15 net_259:12 0.0314
*RES
2 net_259:1 inst_176:A2 0.0031
3 net_259:2 net_259:1 0.0050
4 net_259:2 net_259:3 0.0020
5 net_259:3 inst_91:A2 0.0050
6 net_259:3 net_259:12 0.0015
7 net_259:4 inst_258:ZN 0.0010
8 net_259:5 net_259:4 0.0050
9 net_259:6 net_259:5 0.0050
10 net_259:7 net_259:6 0.0037
11 net_259:8 net_259:7 0.0050
12 net_259:9 net_259:8 0.0010
13 net_259:10 net_259:9 0.0050
14 net_259:11 net_259:10 0.0024
15 net_259:12 net_259:11 0.0050
*END

*D_NET net_269 0.5699
*CONN
*I inst_30:ZN O
*I inst_6:A3 I
*CAP
1 inst_30:ZN 0.0166
2 inst_6:A3 0.0166
3 net_269:1 0.1144
4 net_269:2 0.1144
5 net_269:3 0.0386
6 net_269:4 0.0386
7 net_269:5 0.0320
8 net_269:6 0.0320
9 net_269:7 0.0453
10 net_269:8 0.0453
11 net_269:9 0.0380
12 net_269:10 0.0380
*RES
2 inst_6:A3 net_269:10 0.0050
3 net_269:1 inst_30:ZN 0.0050
4 net_269:2 net_269:1 0.0085
5 net_269:3 net_269:2 0.0050
6 net_269:3 net_269:4 0.0025
7 net_269:5 net_269:4 0.0050
8 net_269:6 net_269:5 0.0010
9 net_269:7 net_269:6 0.0050
10 net_269:7 net_269:8 0.0022
11 net_269:9 net_269:8 0.0050
12 net_269:10 net_269:9 0.0045
*END

*D_NET net_548 0.0152
*CONN
*I inst_367:ZN O
*I inst_155:A3 I
*CAP
1 inst_367:ZN 0.0076
2 inst_155:A3 0.0076
*RES
2 inst_367:ZN inst_155:A3 0.0010
*END

*D_NET net_469 0.2282
*CONN
*I inst_558:Q O
*I inst_131:A3 I
*CAP
1 inst_558:Q 0.0166
2 inst_131:A3 0.0166
3 net_469:1 0.0204
4 net_469:2 0.0204
5 net_469:3 0.0540
6 net_469:4 0.0540
7 net_469:5 0.0231
8 net_469:6 0.0231
*RES
2 inst_131:A3 net_469:6 0.0050
3 net_469:1 inst_558:Q 0.0050
4 net_469:1 net_469:2 0.0010
5 net_469:3 net_469:2 0.0050
6 net_469:4 net_469:3 0.0075
7 net_469:5 net_469:4 0.0050
8 net_469:5 net_469:6 0.0010
*END

*D_NET net_501 0.9023
*CONN
*I inst_369:ZN O
*I inst_518:A I
*I inst_370:A I
*I inst_519:A I
*I inst_275:A1 I
*CAP
1 inst_369:ZN 0.0627
2 inst_518:A 0.0166
3 inst_370:A 0.0316
4 inst_519:A 0.0347
5 inst_275:A1 0.0166
6 net_501:1 0.0621
7 net_501:2 0.0583
8 net_501:3 0.0543
9 net_501:4 0.0176
10 net_501:5 0.0176
11 net_501:6 0.0226
12 net_501:7 0.0226
13 net_501:8 0.0152
14 net_501:9 0.0400
15 net_501:10 0.0382
16 net_501:11 0.0382
17 net_501:12 0.0451
18 net_501:13 0.0451
19 net_501:14 0.0780
20 net_501:15 0.0780
21 net_501:16 0.0305
22 net_501:17 0.0152
23 net_501:18 0.0307
24 net_501:19 0.0307
*RES
2 inst_519:A net_501:15 0.0050
3 net_501:1 inst_518:A 0.0050
4 net_501:2 inst_369:ZN 0.0050
5 net_501:2 net_501:1 0.0045
6 net_501:3 inst_369:ZN 0.0062
7 net_501:3 net_501:4 0.0050
8 net_501:5 net_501:4 0.0010
9 net_501:5 net_501:6 0.0050
10 net_501:7 net_501:6 0.0014
11 net_501:7 net_501:8 0.0050
12 net_501:8 inst_275:A1 0.0050
13 net_501:9 inst_370:A 0.0041
14 net_501:10 net_501:9 0.0050
15 net_501:11 net_501:10 0.0025
16 net_501:12 net_501:11 0.0050
17 net_501:13 net_501:12 0.0027
18 net_501:14 net_501:13 0.0050
19 net_501:15 net_501:14 0.0075
20 net_501:16 inst_519:A 0.0031
21 net_501:17 net_501:16 0.0050
22 net_501:18 net_501:17 0.0050
23 net_501:19 net_501:1 0.0050
24 net_501:19 net_501:18 0.0014
*END

*D_NET net_187 0.4454
*CONN
*I inst_478:ZN O
*I inst_487:A I
*I inst_266:A2 I
*CAP
1 inst_478:ZN 0.0326
2 inst_487:A 0.0072
3 inst_266:A2 0.0077
4 net_187:1 0.0160
5 net_187:2 0.0161
6 net_187:3 0.0161
7 net_187:4 0.0268
8 net_187:5 0.0268
9 net_187:6 0.0152
10 net_187:7 0.0182
11 net_187:8 0.0310
12 net_187:9 0.0152
13 net_187:10 0.0858
14 net_187:11 0.0858
15 net_187:12 0.0147
16 net_187:13 0.0147
17 net_187:14 0.0155
*RES
2 inst_478:ZN net_187:8 0.0031
3 inst_266:A2 net_187:1 0.0010
4 net_187:2 net_187:1 0.0050
5 net_187:3 net_187:2 0.0010
6 net_187:4 net_187:3 0.0050
7 net_187:4 net_187:5 0.0020
8 net_187:6 net_187:5 0.0050
9 net_187:7 inst_478:ZN 0.0010
10 net_187:7 net_187:6 0.0050
11 net_187:9 net_187:8 0.0050
12 net_187:10 net_187:9 0.0050
13 net_187:10 net_187:11 0.0061
14 net_187:12 net_187:11 0.0050
15 net_187:13 net_187:12 0.0010
16 net_187:14 inst_487:A 0.0010
17 net_187:14 net_187:13 0.0050
*END

*D_NET net_111 0.0152
*CONN
*I inst_239:ZN O
*I inst_251:A2 I
*CAP
1 inst_239:ZN 0.0076
2 inst_251:A2 0.0076
*RES
2 inst_251:A2 inst_239:ZN 0.0010
*END

*D_NET net_264 0.2595
*CONN
*I inst_0:ZN O
*I inst_551:D I
*CAP
1 inst_0:ZN 0.0069
2 inst_551:D 0.0166
3 net_264:1 0.0340
4 net_264:2 0.0340
5 net_264:3 0.0501
6 net_264:4 0.0501
7 net_264:5 0.0263
8 net_264:6 0.0263
9 net_264:7 0.0153
*RES
2 net_264:1 inst_551:D 0.0050
3 net_264:1 net_264:2 0.0025
4 net_264:3 net_264:2 0.0050
5 net_264:3 net_264:4 0.0061
6 net_264:5 net_264:4 0.0050
7 net_264:5 net_264:6 0.0015
8 net_264:7 inst_0:ZN 0.0010
9 net_264:7 net_264:6 0.0050
*END

*D_NET net_90 0.7089
*CONN
*I inst_200:ZN O
*I inst_457:A I
*I inst_203:A1 I
*CAP
1 inst_200:ZN 0.0316
2 inst_457:A 0.0143
3 inst_203:A1 0.0166
4 net_90:1 0.0728
5 net_90:2 0.0712
6 net_90:3 0.0175
7 net_90:4 0.0233
8 net_90:5 0.2195
9 net_90:6 0.2195
10 net_90:7 0.0227
*RES
2 inst_200:ZN net_90:4 0.0021
3 inst_200:ZN net_90:3 0.0050
4 inst_457:A net_90:7 0.0021
5 net_90:1 inst_203:A1 0.0050
6 net_90:2 net_90:1 0.0045
7 net_90:3 net_90:2 0.0010
8 net_90:5 net_90:4 0.0050
9 net_90:6 net_90:5 0.0185
10 net_90:7 net_90:6 0.0050
*END

*D_NET net_225 0.1845
*CONN
*I inst_265:ZN O
*I inst_279:A2 I
*CAP
1 inst_265:ZN 0.0166
2 inst_279:A2 0.0166
3 net_225:1 0.0756
4 net_225:2 0.0756
*RES
2 inst_265:ZN net_225:2 0.0050
3 net_225:1 inst_279:A2 0.0050
4 net_225:1 net_225:2 0.0050
*END

*D_NET net_283 0.9693
*CONN
*I inst_491:ZN O
*I inst_581:A2 I
*I inst_277:A2 I
*CAP
1 inst_491:ZN 0.0166
2 inst_581:A2 0.0166
3 inst_277:A2 0.0077
4 net_283:1 0.0517
5 net_283:2 0.0517
6 net_283:3 0.0387
7 net_283:4 0.0387
8 net_283:5 0.0802
9 net_283:6 0.0912
10 net_283:7 0.2020
11 net_283:8 0.2020
12 net_283:9 0.0180
13 net_283:10 0.0180
14 net_283:11 0.0160
15 net_283:12 0.0178
16 net_283:13 0.0178
17 net_283:14 0.0331
18 net_283:15 0.0331
19 net_283:16 0.0186
*RES
2 inst_277:A2 net_283:11 0.0010
3 net_283:1 inst_581:A2 0.0050
4 net_283:1 net_283:2 0.0035
5 net_283:3 net_283:2 0.0050
6 net_283:3 net_283:4 0.0027
7 net_283:5 net_283:4 0.0050
8 net_283:5 net_283:6 0.0090
9 net_283:6 net_283:16 0.0010
10 net_283:6 net_283:7 0.0050
11 net_283:8 net_283:7 0.0183
12 net_283:8 net_283:9 0.0050
13 net_283:10 net_283:9 0.0010
14 net_283:10 net_283:11 0.0050
15 net_283:12 inst_491:ZN 0.0050
16 net_283:13 net_283:12 0.0010
17 net_283:14 net_283:13 0.0050
18 net_283:15 net_283:14 0.0041
19 net_283:16 net_283:15 0.0050
*END

*D_NET net_85 0.3748
*CONN
*I inst_227:ZN O
*I inst_57:A2 I
*I inst_45:A2 I
*CAP
1 inst_227:ZN 0.0166
2 inst_57:A2 0.0080
3 inst_45:A2 0.0166
4 net_85:1 0.0163
5 net_85:2 0.0140
6 net_85:3 0.0270
7 net_85:4 0.0206
8 net_85:5 0.0362
9 net_85:6 0.0362
10 net_85:7 0.0278
11 net_85:8 0.0278
12 net_85:9 0.0152
13 net_85:10 0.0562
14 net_85:11 0.0562
*RES
2 net_85:1 inst_57:A2 0.0010
3 net_85:2 net_85:1 0.0050
4 net_85:3 net_85:2 0.0010
5 net_85:4 net_85:3 0.0010
6 net_85:4 net_85:5 0.0050
7 net_85:6 net_85:5 0.0047
8 net_85:6 net_85:7 0.0050
9 net_85:8 inst_45:A2 0.0050
10 net_85:8 net_85:7 0.0015
11 net_85:9 inst_227:ZN 0.0050
12 net_85:10 net_85:9 0.0050
13 net_85:11 net_85:3 0.0050
14 net_85:11 net_85:10 0.0054
*END

*D_NET net_263 0.4115
*CONN
*I inst_483:ZN O
*I inst_488:A I
*I inst_0:A I
*I inst_33:A2 I
*CAP
1 inst_483:ZN 0.0166
2 inst_488:A 0.0166
3 inst_0:A 0.0166
4 inst_33:A2 0.0166
5 net_263:1 0.0952
6 net_263:2 0.1193
7 net_263:3 0.0773
8 net_263:4 0.0532
*RES
2 net_263:1 inst_33:A2 0.0050
3 net_263:1 net_263:4 0.0040
4 net_263:2 inst_488:A 0.0050
5 net_263:2 net_263:1 0.0040
6 net_263:3 inst_0:A 0.0050
7 net_263:3 net_263:2 0.0065
8 net_263:4 inst_483:ZN 0.0050
*END

*D_NET net_252 0.7530
*CONN
*I inst_270:ZN O
*I inst_190:A2 I
*CAP
1 inst_270:ZN 0.0166
2 inst_190:A2 0.0166
3 net_252:1 0.0254
4 net_252:2 0.0254
5 net_252:3 0.0138
6 net_252:4 0.0138
7 net_252:5 0.2014
8 net_252:6 0.2014
9 net_252:7 0.0263
10 net_252:8 0.0263
11 net_252:9 0.0663
12 net_252:10 0.0785
13 net_252:11 0.0248
14 net_252:12 0.0164
*RES
2 inst_190:A2 net_252:12 0.0050
3 net_252:1 inst_270:ZN 0.0050
4 net_252:2 net_252:1 0.0015
5 net_252:3 net_252:2 0.0050
6 net_252:4 net_252:3 0.0010
7 net_252:5 net_252:4 0.0050
8 net_252:6 net_252:5 0.0053
9 net_252:7 net_252:6 0.0050
10 net_252:7 net_252:8 0.0018
11 net_252:9 net_252:8 0.0050
12 net_252:10 net_252:9 0.0080
13 net_252:10 net_252:11 0.0014
14 net_252:12 net_252:11 0.0010
*END

*D_NET net_124 0.3924
*CONN
*I inst_465:ZN O
*I inst_470:A I
*I inst_143:A3 I
*CAP
1 inst_465:ZN 0.0268
2 inst_470:A 0.0072
3 inst_143:A3 0.0166
4 net_124:1 0.0155
5 net_124:2 0.0425
6 net_124:3 0.0425
7 net_124:4 0.0185
8 net_124:5 0.0780
9 net_124:6 0.0780
10 net_124:7 0.0257
11 net_124:8 0.0257
12 net_124:9 0.0152
*RES
2 inst_465:ZN net_124:4 0.0010
3 inst_465:ZN net_124:3 0.0050
4 inst_470:A net_124:1 0.0010
5 inst_143:A3 net_124:9 0.0050
6 net_124:2 net_124:1 0.0050
7 net_124:2 net_124:3 0.0030
8 net_124:5 net_124:4 0.0050
9 net_124:5 net_124:6 0.0040
10 net_124:7 net_124:6 0.0050
11 net_124:7 net_124:8 0.0014
12 net_124:9 net_124:8 0.0050
*END

*D_NET net_343 0.1246
*CONN
*I inst_103:ZN O
*I inst_106:A2 I
*CAP
1 inst_103:ZN 0.0166
2 inst_106:A2 0.0166
3 net_343:1 0.0457
4 net_343:2 0.0457
*RES
2 inst_103:ZN net_343:2 0.0050
3 net_343:1 inst_106:A2 0.0050
4 net_343:1 net_343:2 0.0025
*END

*D_NET net_404 0.2333
*CONN
*I inst_168:ZN O
*I inst_186:A1 I
*CAP
1 inst_168:ZN 0.0166
2 inst_186:A1 0.0166
3 net_404:1 0.0208
4 net_404:2 0.0208
5 net_404:3 0.0453
6 net_404:4 0.0453
7 net_404:5 0.0339
8 net_404:6 0.0339
*RES
2 inst_168:ZN net_404:6 0.0050