*SPEF "IEEE 1481-1998"
*DESIGN "c5315"
*DATE "Tue Nov 25 16:54:50 2014"
*VENDOR "TAU 2015 Contest"
*PROGRAM "Benchmark Parasitic Generator"
*VERSION "0.0"
*DESIGN_FLOW "NETLIST_TYPE_VERILOG"
*DIVIDER /
*DELIMITER :
*BUS_DELIMITER [ ]
*T_UNIT 1 PS
*C_UNIT 1 FF
*R_UNIT 1 KOHM
*L_UNIT 1 UH

*D_NET net_416 2.5717
*CONN
*I inst_646:Z O
*I inst_55:A I
*I inst_648:A I
*I inst_344:A2 I
*I inst_695:A I
*CAP
1 inst_646:Z 0.0076
2 inst_55:A 0.0332
3 inst_648:A 0.0166
4 inst_344:A2 0.0166
5 inst_695:A 0.0166
6 net_416:1 0.0152
7 net_416:2 0.0713
8 net_416:3 0.0267
9 net_416:4 0.0217
10 net_416:5 0.0217
11 net_416:6 0.1640
12 net_416:7 0.1640
13 net_416:8 0.1140
14 net_416:9 0.1140
15 net_416:10 0.0957
16 net_416:11 0.0957
17 net_416:12 0.0152
18 net_416:13 0.0861
19 net_416:14 0.0899
20 net_416:15 0.0424
21 net_416:16 0.0424
22 net_416:17 0.4228
23 net_416:18 0.4228
24 net_416:19 0.0182
25 net_416:20 0.0182
26 net_416:21 0.0512
27 net_416:22 0.0843
28 net_416:23 0.0162
29 net_416:24 0.0162
30 net_416:25 0.0523
31 net_416:26 0.0159
32 net_416:27 0.0278
33 net_416:28 0.0278
34 net_416:29 0.0413
35 net_416:30 0.0413
36 net_416:31 0.0445
*RES
2 inst_646:Z net_416:26 0.0010
3 inst_55:A net_416:23 0.0050
4 net_416:1 inst_344:A2 0.0050
5 net_416:2 net_416:1 0.0050
6 net_416:2 net_416:3 0.0025
7 net_416:3 net_416:4 0.0050
8 net_416:4 net_416:5 0.0010
9 net_416:5 net_416:6 0.0030
10 net_416:6 net_416:7 0.0071
11 net_416:7 net_416:8 0.0030
12 net_416:8 net_416:9 0.0040
13 net_416:9 net_416:10 0.0050
14 net_416:10 net_416:11 0.0090
15 net_416:11 net_416:12 0.0050
16 net_416:12 inst_695:A 0.0050
17 net_416:13 inst_648:A 0.0050
18 net_416:14 net_416:13 0.0070
19 net_416:15 net_416:14 0.0050
20 net_416:15 net_416:16 0.0033
21 net_416:17 net_416:16 0.0050
22 net_416:18 net_416:17 0.0137
23 net_416:19 net_416:18 0.0050
24 net_416:20 net_416:19 0.0010
25 net_416:21 net_416:20 0.0050
26 net_416:22 inst_55:A 0.0050
27 net_416:22 net_416:21 0.0060
28 net_416:24 net_416:23 0.0010
29 net_416:24 net_416:25 0.0050
30 net_416:25 net_416:2 0.0068
31 net_416:27 net_416:26 0.0050
32 net_416:27 net_416:28 0.0025
33 net_416:29 net_416:28 0.0050
34 net_416:29 net_416:30 0.0034
35 net_416:31 net_416:22 0.0055
36 net_416:31 net_416:30 0.0050
*END

*D_NET net_215 0.5247
*CONN
*I inst_236:ZN O
*I inst_496:A2 I
*I inst_497:A2 I
*I inst_498:A2 I
*I inst_501:A2 I
*CAP
1 inst_236:ZN 0.0319
2 inst_496:A2 0.0153
3 inst_497:A2 0.0073
4 inst_498:A2 0.0222
5 inst_501:A2 0.0221
6 net_215:1 0.0462
7 net_215:2 0.0462
8 net_215:3 0.0342
9 net_215:4 0.0342
10 net_215:5 0.0390
11 net_215:6 0.0927
12 net_215:7 0.0651
13 net_215:8 0.0378
14 net_215:9 0.0304
*RES
2 inst_496:A2 inst_236:ZN 0.0021
3 inst_497:A2 net_215:8 0.0010
4 net_215:1 inst_236:ZN 0.0050
5 net_215:2 net_215:1 0.0025
6 net_215:3 net_215:2 0.0050
7 net_215:3 net_215:4 0.0020
8 net_215:5 net_215:4 0.0050
9 net_215:6 net_215:5 0.0020
10 net_215:7 net_215:6 0.0035
11 net_215:7 net_215:8 0.0050
12 net_215:8 inst_498:A2 0.0031
13 net_215:9 inst_501:A2 0.0041
14 net_215:9 net_215:6 0.0050
*END

*D_NET net_54 0.1443
*CONN
*I inst_244:ZN O
*I inst_200:A1 I
*CAP
1 inst_244:ZN 0.0166
2 inst_200:A1 0.0166
3 net_54:1 0.0555
4 net_54:2 0.0555
*RES
2 inst_200:A1 net_54:2 0.0050
3 net_54:1 inst_244:ZN 0.0050
4 net_54:1 net_54:2 0.0075
*END

*D_NET net_526 1.0420
*CONN
*I inst_150:ZN O
*I inst_328:A1 I
*I inst_336:A1 I
*I inst_339:A1 I
*CAP
1 inst_150:ZN 0.0253
2 inst_328:A1 0.0166
3 inst_336:A1 0.0166
4 inst_339:A1 0.0166
5 net_526:1 0.0916
6 net_526:2 0.0783
7 net_526:3 0.0565
8 net_526:4 0.0565
9 net_526:5 0.0152
10 net_526:6 0.0449
11 net_526:7 0.0244
12 net_526:8 0.0565
13 net_526:9 0.0565
14 net_526:10 0.1063
15 net_526:11 0.1063
16 net_526:12 0.0201
17 net_526:13 0.0201
18 net_526:14 0.0248
19 net_526:15 0.0336
20 net_526:16 0.0204
21 net_526:17 0.0204
22 net_526:18 0.0513
23 net_526:19 0.0513
24 net_526:20 0.0319
*RES
2 inst_150:ZN net_526:15 0.0031
3 net_526:1 inst_328:A1 0.0050
4 net_526:1 net_526:14 0.0010
5 net_526:2 net_526:1 0.0075
6 net_526:2 net_526:3 0.0050
7 net_526:4 net_526:3 0.0061
8 net_526:4 net_526:5 0.0050
9 net_526:5 inst_336:A1 0.0050
10 net_526:6 inst_339:A1 0.0050
11 net_526:6 net_526:20 0.0020
12 net_526:7 net_526:6 0.0010
13 net_526:7 net_526:8 0.0050
14 net_526:8 net_526:9 0.0036
15 net_526:9 net_526:10 0.0050
16 net_526:11 net_526:10 0.0034
17 net_526:11 net_526:12 0.0050
18 net_526:12 net_526:13 0.0011
19 net_526:13 net_526:14 0.0050
20 net_526:16 net_526:15 0.0050
21 net_526:17 net_526:16 0.0010
22 net_526:18 net_526:17 0.0050
23 net_526:18 net_526:19 0.0061
24 net_526:20 net_526:19 0.0050
*END

*D_NET net_429 0.1782
*CONN
*I inst_159:ZN O
*I inst_384:A1 I
*CAP
1 inst_159:ZN 0.0228
2 inst_384:A1 0.0166
3 net_429:1 0.0311
4 net_429:2 0.0152
5 net_429:3 0.0387
6 net_429:4 0.0387
7 net_429:5 0.0152
*RES
2 inst_384:A1 net_429:5 0.0050
3 net_429:1 inst_159:ZN 0.0031
4 net_429:2 net_429:1 0.0050
5 net_429:3 net_429:2 0.0050
6 net_429:4 net_429:3 0.0014
7 net_429:5 net_429:4 0.0050
*END

*D_NET net_694 0.7068
*CONN
*I inst_117:ZN O
*I inst_711:A I
*I inst_712:B I
*CAP
1 inst_117:ZN 0.0081
2 inst_711:A 0.0166
3 inst_712:B 0.0166
4 net_694:1 0.0559
5 net_694:2 0.0856
6 net_694:3 0.0206
7 net_694:4 0.0192
8 net_694:5 0.0192
9 net_694:6 0.2118
10 net_694:7 0.2118
11 net_694:8 0.0411
*RES
2 inst_117:ZN net_694:3 0.0010
3 net_694:1 inst_711:A 0.0050
4 net_694:1 net_694:2 0.0035
5 net_694:2 inst_712:B 0.0050
6 net_694:2 net_694:8 0.0040
7 net_694:4 net_694:3 0.0050
8 net_694:5 net_694:4 0.0010
9 net_694:6 net_694:5 0.0050
10 net_694:7 net_694:6 0.0217
11 net_694:8 net_694:7 0.0050
*END

*D_NET net_129 1.2988
*CONN
*I inst_631:Z O
*I inst_703:B I
*CAP
1 inst_631:Z 0.0166
2 inst_703:B 0.0166
3 net_129:1 0.0416
4 net_129:2 0.0416
5 net_129:3 0.1248
6 net_129:4 0.1248
7 net_129:5 0.2367
8 net_129:6 0.2367
9 net_129:7 0.0750
10 net_129:8 0.0750
11 net_129:9 0.0778
12 net_129:10 0.0740
13 net_129:11 0.0581
14 net_129:12 0.0581
15 net_129:13 0.0206
16 net_129:14 0.0206
*RES
2 inst_703:B net_129:14 0.0050
3 net_129:1 inst_631:Z 0.0050
4 net_129:2 net_129:1 0.0025
5 net_129:3 net_129:2 0.0050
6 net_129:3 net_129:4 0.0120
7 net_129:5 net_129:4 0.0050
8 net_129:6 net_129:5 0.0082
9 net_129:7 net_129:6 0.0050
10 net_129:7 net_129:8 0.0070
11 net_129:9 net_129:8 0.0050
12 net_129:10 net_129:9 0.0060
13 net_129:11 net_129:10 0.0050
14 net_129:11 net_129:12 0.0041
15 net_129:13 net_129:12 0.0050
16 net_129:14 net_129:13 0.0010
*END

*D_NET net_648 4.0284
*CONN
*I inst_671:Z O
*I inst_835:A I
*I inst_689:B I
*I inst_690:B I
*I inst_691:B I
*I inst_692:B I
*CAP
1 inst_671:Z 0.0153
2 inst_835:A 0.0166
3 inst_689:B 0.0166
4 inst_690:B 0.0166
5 inst_691:B 0.0166
6 inst_692:B 0.0166
7 net_648:1 0.0177
8 net_648:2 0.0177
9 net_648:3 0.0728
10 net_648:4 0.0728
11 net_648:5 0.0278
12 net_648:6 0.0278
13 net_648:7 0.0921
14 net_648:8 0.3794
15 net_648:9 0.3770
16 net_648:10 0.5834
17 net_648:11 0.2064
18 net_648:12 0.0726
19 net_648:13 0.0726
20 net_648:14 0.0256
21 net_648:15 0.0256
22 net_648:16 0.0239
23 net_648:17 0.0620
24 net_648:18 0.0179
25 net_648:19 0.0179
26 net_648:20 0.0167
27 net_648:21 0.0167
28 net_648:22 0.0457
29 net_648:23 0.0486
30 net_648:24 0.0486
31 net_648:25 0.1068
32 net_648:26 0.0754
33 net_648:27 0.0177
34 net_648:28 0.0177
35 net_648:29 0.0207
36 net_648:30 0.0207
37 net_648:31 0.0209
38 net_648:32 0.0209
39 net_648:33 0.0428
40 net_648:34 0.0236
41 net_648:35 0.0152
42 net_648:36 0.0152
43 net_648:37 0.0177
44 net_648:38 0.4229
45 net_648:39 0.4292
46 net_648:40 0.2936
*RES
2 inst_671:Z net_648:34 0.0021
3 net_648:1 inst_835:A 0.0050
4 net_648:1 net_648:2 0.0010
5 net_648:3 net_648:2 0.0050
6 net_648:4 net_648:3 0.0052
7 net_648:5 net_648:4 0.0050
8 net_648:5 net_648:6 0.0010
9 net_648:7 net_648:6 0.0030
10 net_648:8 net_648:7 0.0029
11 net_648:8 net_648:9 0.0030
12 net_648:10 net_648:9 0.0126
13 net_648:10 net_648:30 0.0030
14 net_648:11 net_648:10 0.0046
15 net_648:11 net_648:12 0.0030
16 net_648:12 net_648:13 0.0025
17 net_648:13 net_648:14 0.0030
18 net_648:15 net_648:14 0.0010
19 net_648:15 net_648:16 0.0050
20 net_648:16 net_648:17 0.0028
21 net_648:17 net_648:22 0.0041
22 net_648:17 net_648:18 0.0050
23 net_648:18 net_648:19 0.0010
24 net_648:19 inst_689:B 0.0050
25 net_648:20 inst_690:B 0.0050
26 net_648:21 net_648:20 0.0010
27 net_648:22 net_648:21 0.0050
28 net_648:23 inst_691:B 0.0050
29 net_648:24 net_648:23 0.0040
30 net_648:25 net_648:24 0.0050
31 net_648:25 net_648:26 0.0099
32 net_648:27 net_648:26 0.0050
33 net_648:28 net_648:27 0.0010
34 net_648:29 net_648:28 0.0030
35 net_648:29 net_648:30 0.0010
36 net_648:31 inst_692:B 0.0050
37 net_648:31 net_648:32 0.0015
38 net_648:33 net_648:25 0.0027
39 net_648:33 net_648:32 0.0050
40 net_648:35 net_648:34 0.0050
41 net_648:36 net_648:35 0.0050
42 net_648:37 net_648:36 0.0050
43 net_648:38 net_648:37 0.0030
44 net_648:38 net_648:39 0.0147
45 net_648:39 net_648:40 0.0010
46 net_648:40 net_648:8 0.0084
*END

*D_NET net_373 0.1579
*CONN
*I inst_824:ZN O
*I inst_382:A1 I
*CAP
1 inst_824:ZN 0.0076
2 inst_382:A1 0.0166
3 net_373:1 0.0159
4 net_373:2 0.0274
5 net_373:3 0.0513
6 net_373:4 0.0391
*RES
2 inst_382:A1 net_373:4 0.0050
3 net_373:1 inst_824:ZN 0.0010
4 net_373:2 net_373:1 0.0050
5 net_373:3 net_373:2 0.0014
6 net_373:3 net_373:4 0.0025
*END

*D_NET net_98 0.8452
*CONN
*I inst_354:ZN O
*I inst_396:A1 I
*CAP
1 inst_354:ZN 0.0304
2 inst_396:A1 0.0166
3 net_98:1 0.0387
4 net_98:2 0.1911
5 net_98:3 0.1911
6 net_98:4 0.1537
7 net_98:5 0.1537
8 net_98:6 0.0349
9 net_98:7 0.0349
*RES
2 inst_354:ZN net_98:1 0.0041
3 inst_396:A1 net_98:7 0.0050
4 net_98:2 net_98:1 0.0050
5 net_98:3 net_98:2 0.0235
6 net_98:4 net_98:3 0.0050
7 net_98:4 net_98:5 0.0143
8 net_98:6 net_98:5 0.0050
9 net_98:7 net_98:6 0.0040
*END

*D_NET net_739 0.3295
*CONN
*I inst_575:ZN O
*I inst_403:A3 I
*CAP
1 inst_575:ZN 0.0166
2 inst_403:A3 0.0166
3 net_739:1 0.1481
4 net_739:2 0.1481
*RES
2 inst_403:A3 net_739:2 0.0050
3 net_739:1 inst_575:ZN 0.0050
4 net_739:2 net_739:1 0.0145
*END

*D_NET net_151 0.2278
*CONN
*I inst_451:ZN O
*I inst_379:A3 I
*CAP
1 inst_451:ZN 0.0166
2 inst_379:A3 0.0166
3 net_151:1 0.0152
4 net_151:2 0.0821
5 net_151:3 0.0821
6 net_151:4 0.0152
*RES
2 inst_451:ZN net_151:4 0.0050
3 net_151:1 inst_379:A3 0.0050
4 net_151:2 net_151:1 0.0050
5 net_151:2 net_151:3 0.0061
6 net_151:4 net_151:3 0.0050
*END

*D_NET net_356 0.1293
*CONN
*I inst_823:ZN O
*I inst_873:A3 I
*CAP
1 inst_823:ZN 0.0166
2 inst_873:A3 0.0166
3 net_356:1 0.0162
4 net_356:2 0.0162
5 net_356:3 0.0243
6 net_356:4 0.0243
7 net_356:5 0.0152
*RES
2 inst_823:ZN net_356:5 0.0050
3 net_356:1 inst_873:A3 0.0050
4 net_356:2 net_356:1 0.0010
5 net_356:3 net_356:2 0.0050
6 net_356:3 net_356:4 0.0020
7 net_356:5 net_356:4 0.0050
*END

*D_NET net_53 0.2883
*CONN
*I inst_787:ZN O
*I inst_244:A1 I
*I inst_256:A1 I
*CAP
1 inst_787:ZN 0.0352
2 inst_244:A1 0.0166
3 inst_256:A1 0.0166
4 net_53:1 0.0152
5 net_53:2 0.0407
6 net_53:3 0.0407
7 net_53:4 0.0152
8 net_53:5 0.0311
9 net_53:6 0.0152
10 net_53:7 0.0232
11 net_53:8 0.0232
12 net_53:9 0.0152
*RES
2 inst_787:ZN net_53:4 0.0050
3 inst_256:A1 net_53:9 0.0050
4 net_53:1 inst_244:A1 0.0050
5 net_53:2 net_53:1 0.0050
6 net_53:3 net_53:2 0.0047
7 net_53:4 net_53:3 0.0050
8 net_53:5 inst_787:ZN 0.0031
9 net_53:6 net_53:5 0.0050
10 net_53:7 net_53:6 0.0050
11 net_53:8 net_53:7 0.0014
12 net_53:9 net_53:8 0.0050
*END

*D_NET net_452 0.5134
*CONN
*I inst_543:ZN O
*I inst_202:A3 I
*I inst_139:A3 I
*I inst_203:A3 I
*CAP
1 inst_543:ZN 0.0166
2 inst_202:A3 0.0166
3 inst_139:A3 0.0166
4 inst_203:A3 0.0196
5 net_452:1 0.0359
6 net_452:2 0.0359
7 net_452:3 0.0196
8 net_452:4 0.0152
9 net_452:5 0.0669
10 net_452:6 0.0669
11 net_452:7 0.0980
12 net_452:8 0.0124
13 net_452:9 0.0932
*RES
2 inst_203:A3 net_452:3 0.0010
3 net_452:1 inst_202:A3 0.0050
4 net_452:1 net_452:2 0.0045
5 net_452:3 net_452:2 0.0050
6 net_452:4 inst_203:A3 0.0050
7 net_452:5 net_452:4 0.0050
8 net_452:6 net_452:5 0.0088
9 net_452:7 net_452:6 0.0050
10 net_452:7 net_452:8 0.0010
11 net_452:8 inst_139:A3 0.0050
12 net_452:9 inst_543:ZN 0.0050
13 net_452:9 net_452:7 0.0090
*END

*D_NET net_545 0.2673
*CONN
*I inst_91:ZN O
*I inst_108:A I
*CAP
1 inst_91:ZN 0.0166
2 inst_108:A 0.0166
3 net_545:1 0.0152
4 net_545:2 0.0924
5 net_545:3 0.0924
6 net_545:4 0.0170
7 net_545:5 0.0170
*RES
2 inst_108:A net_545:5 0.0050
3 net_545:1 inst_91:ZN 0.0050
4 net_545:2 net_545:1 0.0050
5 net_545:3 net_545:2 0.0068
6 net_545:4 net_545:3 0.0050
7 net_545:5 net_545:4 0.0010
*END

*D_NET net_284 0.2026
*CONN
*I inst_8:Z O
*I inst_61:A I
*CAP
1 inst_8:Z 0.0166
2 inst_61:A 0.0166
3 net_284:1 0.0195
4 net_284:2 0.0195
5 net_284:3 0.0284
6 net_284:4 0.0284
7 net_284:5 0.0368
8 net_284:6 0.0368
*RES
2 inst_8:Z net_284:6 0.0050
3 net_284:1 inst_61:A 0.0050
4 net_284:2 net_284:1 0.0010
5 net_284:3 net_284:2 0.0050
6 net_284:4 net_284:3 0.0027
7 net_284:5 net_284:4 0.0050
8 net_284:6 net_284:5 0.0020
*END

*D_NET net_560 0.3254
*CONN
*I inst_658:Z O
*I inst_164:A2 I
*CAP
1 inst_658:Z 0.0166
2 inst_164:A2 0.0166
3 net_560:1 0.0584
4 net_560:2 0.0584
5 net_560:3 0.0563
6 net_560:4 0.0563
7 net_560:5 0.0314
8 net_560:6 0.0314
*RES
2 inst_164:A2 net_560:6 0.0050
3 net_560:1 inst_658:Z 0.0050
4 net_560:1 net_560:2 0.0063
5 net_560:3 net_560:2 0.0050
6 net_560:4 net_560:3 0.0020
7 net_560:5 net_560:4 0.0050
8 net_560:5 net_560:6 0.0020
*END

*D_NET net_774 4.5583
*CONN
*I inst_761:ZN O
*I inst_237:A1 I
*I inst_653:S I
*I inst_568:A1 I
*I inst_693:S I
*I inst_694:S I
*I inst_583:A1 I
*I inst_584:A1 I
*CAP
1 inst_761:ZN 0.0166
2 inst_237:A1 0.0166
3 inst_653:S 0.0166
4 inst_568:A1 0.0166
5 inst_693:S 0.0166
6 inst_694:S 0.0166
7 inst_583:A1 0.0166
8 inst_584:A1 0.0166
9 net_774:1 0.1305
10 net_774:2 0.1305
11 net_774:3 0.0213
12 net_774:4 0.0213
13 net_774:5 0.4296
14 net_774:6 0.4296
15 net_774:7 0.3363
16 net_774:8 0.3363
17 net_774:9 0.0177
18 net_774:10 0.0231
19 net_774:11 0.0231
20 net_774:12 0.1596
21 net_774:13 0.1227
22 net_774:14 0.0388
23 net_774:15 0.0388
24 net_774:16 0.2043
25 net_774:17 0.2839
26 net_774:18 0.0858
27 net_774:19 0.1007
28 net_774:20 0.0225
29 net_774:21 0.0241
30 net_774:22 0.0241
31 net_774:23 0.0448
32 net_774:24 0.0448
33 net_774:25 0.0237
34 net_774:26 0.0237
35 net_774:27 0.0179
36 net_774:28 0.0179
37 net_774:29 0.0162
38 net_774:30 0.0162
39 net_774:31 0.0082
40 net_774:32 0.0082
41 net_774:33 0.0162
42 net_774:34 0.0377
43 net_774:35 0.0099
44 net_774:36 0.0099
45 net_774:37 0.0796
46 net_774:38 0.0367
47 net_774:39 0.0367
48 net_774:40 0.0152
49 net_774:41 0.0227
50 net_774:42 0.0227
51 net_774:43 0.2267
52 net_774:44 0.2267
53 net_774:45 0.1126
54 net_774:46 0.1126
55 net_774:47 0.0522
56 net_774:48 0.0253
57 net_774:49 0.0253
58 net_774:50 0.0486
59 net_774:51 0.0486
60 net_774:52 0.0330
*RES
2 net_774:1 inst_237:A1 0.0050
3 net_774:1 net_774:2 0.0145
4 net_774:3 net_774:2 0.0050
5 net_774:3 net_774:4 0.0013
6 net_774:5 net_774:4 0.0050
7 net_774:5 net_774:6 0.0128
8 net_774:6 net_774:32 0.0050
9 net_774:7 net_774:6 0.0030
10 net_774:7 net_774:8 0.0122
11 net_774:9 net_774:8 0.0030
12 net_774:10 net_774:9 0.0050
13 net_774:10 net_774:11 0.0010
14 net_774:12 inst_568:A1 0.0050
15 net_774:12 net_774:11 0.0050
16 net_774:12 net_774:13 0.0115
17 net_774:14 net_774:13 0.0050
18 net_774:15 net_774:14 0.0019
19 net_774:16 net_774:15 0.0050
20 net_774:16 net_774:17 0.0053
21 net_774:17 net_774:37 0.0029
22 net_774:17 net_774:18 0.0050
23 net_774:18 net_774:19 0.0060
24 net_774:19 net_774:20 0.0014
25 net_774:19 net_774:39 0.0050
26 net_774:20 net_774:21 0.0050
27 net_774:21 net_774:22 0.0020
28 net_774:22 net_774:23 0.0050
29 net_774:23 net_774:24 0.0027
30 net_774:24 net_774:25 0.0010
31 net_774:25 net_774:26 0.0014
32 net_774:26 net_774:27 0.0050
33 net_774:27 net_774:28 0.0010
34 net_774:28 inst_584:A1 0.0050
35 net_774:29 inst_653:S 0.0050
36 net_774:30 net_774:29 0.0010
37 net_774:31 net_774:30 0.0050
38 net_774:32 net_774:31 0.0010
39 net_774:33 inst_693:S 0.0050
40 net_774:33 net_774:34 0.0010
41 net_774:34 net_774:52 0.0025
42 net_774:34 net_774:35 0.0050
43 net_774:35 net_774:36 0.0010
44 net_774:36 net_774:37 0.0050
45 net_774:38 inst_694:S 0.0050
46 net_774:38 net_774:39 0.0035
47 net_774:40 inst_583:A1 0.0050
48 net_774:41 net_774:40 0.0050
49 net_774:42 net_774:41 0.0014
50 net_774:43 net_774:42 0.0050
51 net_774:43 net_774:44 0.0065
52 net_774:45 net_774:44 0.0050
53 net_774:46 net_774:45 0.0081
54 net_774:47 net_774:12 0.0045
55 net_774:47 net_774:46 0.0050
56 net_774:48 inst_761:ZN 0.0050
57 net_774:49 net_774:48 0.0015
58 net_774:50 net_774:49 0.0050
59 net_774:50 net_774:51 0.0061
60 net_774:52 net_774:51 0.0050
*END

*D_NET net_439 0.6143
*CONN
*I inst_532:ZN O
*I inst_381:A2 I
*I inst_654:A I
*CAP
1 inst_532:ZN 0.1128
2 inst_381:A2 0.0166
3 inst_654:A 0.0166
4 net_439:1 0.0152
5 net_439:2 0.0152
6 net_439:3 0.1301
7 net_439:4 0.1090
8 net_439:5 0.0152
9 net_439:6 0.1211
10 net_439:7 0.0169
11 net_439:8 0.0169
12 net_439:9 0.0286
*RES
2 inst_532:ZN net_439:6 0.0155
3 net_439:1 inst_381:A2 0.0050
4 net_439:1 net_439:2 0.0010
5 net_439:3 net_439:2 0.0050
6 net_439:3 net_439:4 0.0143
7 net_439:4 net_439:5 0.0050
8 net_439:5 inst_654:A 0.0050
9 net_439:7 net_439:6 0.0050
10 net_439:8 net_439:7 0.0010
11 net_439:9 net_439:3 0.0020
12 net_439:9 net_439:8 0.0050
*END

*D_NET net_259 0.2712
*CONN
*I inst_272:ZN O
*I inst_297:A2 I
*CAP
1 inst_272:ZN 0.0166
2 inst_297:A2 0.0166
3 net_259:1 0.0493
4 net_259:2 0.0516
5 net_259:3 0.0697
6 net_259:4 0.0674
*RES
2 inst_297:A2 net_259:4 0.0050
3 net_259:1 inst_272:ZN 0.0050
4 net_259:2 net_259:1 0.0035
5 net_259:3 net_259:2 0.0010
6 net_259:4 net_259:3 0.0040
*END

*D_NET net_548 0.2924
*CONN
*I inst_37:Z O
*I inst_667:B I
*CAP
1 inst_37:Z 0.0166
2 inst_667:B 0.0166
3 net_548:1 0.0538
4 net_548:2 0.0538
5 net_548:3 0.0274
6 net_548:4 0.0274
7 net_548:5 0.0331
8 net_548:6 0.0389
9 net_548:7 0.0248
*RES
2 inst_667:B net_548:7 0.0050
3 net_548:1 inst_37:Z 0.0050
4 net_548:1 net_548:2 0.0030
5 net_548:3 net_548:2 0.0050
6 net_548:4 net_548:3 0.0014
7 net_548:5 net_548:4 0.0050
8 net_548:5 net_548:6 0.0015
9 net_548:7 net_548:6 0.0012
*END

*D_NET n146 1.5014
*CONN
*P n146 I
*I inst_632:B I
*I inst_634:B I
*CAP
1 n146 0.2470
2 inst_632:B 0.0166
3 inst_634:B 0.0166
4 n146:1 0.0282
5 n146:2 0.0282
6 n146:3 0.0816
7 n146:4 0.0816
8 n146:5 0.0689
9 n146:6 0.0887
10 n146:7 0.2584
11 n146:8 0.2772
12 n146:9 0.2810
13 n146:10 0.0274
*RES
2 n146:1 inst_632:B 0.0050
3 n146:1 n146:2 0.0015
4 n146:3 n146:2 0.0050
5 n146:3 n146:4 0.0061
6 n146:5 n146:4 0.0050
7 n146:5 n146:6 0.0080
8 n146:6 inst_634:B 0.0050
9 n146:6 n146:10 0.0020
10 n146:7 n146 0.0180
11 n146:8 n146:7 0.0050
12 n146:8 n146:9 0.0231
13 n146:10 n146:9 0.0050
*END

*D_NET net_501 0.5262
*CONN
*I inst_383:ZN O
*I inst_328:A2 I
*I inst_892:A1 I
*CAP
1 inst_383:ZN 0.0387
2 inst_328:A2 0.0076
3 inst_892:A1 0.0166
4 net_501:1 0.0731
5 net_501:2 0.0731
6 net_501:3 0.0313
7 net_501:4 0.0470
8 net_501:5 0.0197
9 net_501:6 0.0197
10 net_501:7 0.0662
11 net_501:8 0.0662
12 net_501:9 0.0217
13 net_501:10 0.0217
14 net_501:11 0.0237
*RES
2 inst_383:ZN net_501:4 0.0052
3 net_501:1 inst_892:A1 0.0050
4 net_501:2 net_501:1 0.0085
5 net_501:3 inst_328:A2 0.0010
6 net_501:3 net_501:2 0.0050
7 net_501:5 net_501:4 0.0050
8 net_501:6 net_501:5 0.0015
9 net_501:7 net_501:6 0.0050
10 net_501:7 net_501:8 0.0081
11 net_501:9 net_501:8 0.0050
12 net_501:10 net_501:9 0.0010
13 net_501:11 net_501:3 0.0021
14 net_501:11 net_501:10 0.0050
*END

*D_NET net_187 0.4059
*CONN
*I inst_474:ZN O
*I inst_403:A2 I
*CAP
1 inst_474:ZN 0.0166
2 inst_403:A2 0.0166
3 net_187:1 0.0208
4 net_187:2 0.0208
5 net_187:3 0.1359
6 net_187:4 0.1359
7 net_187:5 0.0296
8 net_187:6 0.0296
*RES
2 inst_403:A2 net_187:6 0.0050
3 net_187:1 inst_474:ZN 0.0050
4 net_187:1 net_187:2 0.0010
5 net_187:3 net_187:2 0.0050
6 net_187:3 net_187:4 0.0095
7 net_187:5 net_187:4 0.0050
8 net_187:5 net_187:6 0.0015
*END

*D_NET net_111 0.3710
*CONN
*I inst_616:Z O
*I inst_279:A2 I
*CAP
1 inst_616:Z 0.0166
2 inst_279:A2 0.0076
3 net_111:1 0.0261
4 net_111:2 0.0261
5 net_111:3 0.0150
6 net_111:4 0.0150
7 net_111:5 0.0572
8 net_111:6 0.0572
9 net_111:7 0.0152
10 net_111:8 0.0595
11 net_111:9 0.0595
12 net_111:10 0.0159
*RES
2 inst_279:A2 net_111:10 0.0010
3 net_111:1 inst_616:Z 0.0050
4 net_111:2 net_111:1 0.0015
5 net_111:3 net_111:2 0.0050
6 net_111:3 net_111:4 0.0010
7 net_111:5 net_111:4 0.0050
8 net_111:6 net_111:5 0.0015
9 net_111:7 net_111:6 0.0050
10 net_111:8 net_111:7 0.0050
11 net_111:9 net_111:8 0.0075
12 net_111:10 net_111:9 0.0050
*END

*D_NET net_264 0.4704
*CONN
*I inst_514:ZN O
*I inst_544:A1 I
*CAP
1 inst_514:ZN 0.0072
2 inst_544:A1 0.0166
3 net_264:1 0.0196
4 net_264:2 0.0152
5 net_264:3 0.0310
6 net_264:4 0.0310
7 net_264:5 0.1287
8 net_264:6 0.1287
9 net_264:7 0.0133
10 net_264:8 0.0133
11 net_264:9 0.0329
12 net_264:10 0.0329
*RES
2 inst_544:A1 net_264:10 0.0050
3 net_264:1 inst_514:ZN 0.0010
4 net_264:2 net_264:1 0.0050
5 net_264:3 net_264:2 0.0050
6 net_264:4 net_264:3 0.0014
7 net_264:5 net_264:4 0.0050
8 net_264:5 net_264:6 0.0048
9 net_264:7 net_264:6 0.0050
10 net_264:8 net_264:7 0.0010
11 net_264:9 net_264:8 0.0050
12 net_264:9 net_264:10 0.0020
*END

*D_NET net_225 0.4286
*CONN
*I inst_789:ZN O
*I inst_186:A2 I
*I inst_515:A1 I
*CAP
1 inst_789:ZN 0.0893
2 inst_186:A2 0.0325
3 inst_515:A1 0.0166
4 net_225:1 0.0651
5 net_225:2 0.0152
6 net_225:3 0.0973
7 net_225:4 0.0973
8 net_225:5 0.0152
*RES
2 inst_789:ZN net_225:1 0.0072
3 inst_186:A2 inst_789:ZN 0.0062
4 inst_515:A1 net_225:5 0.0050
5 net_225:2 net_225:1 0.0050
6 net_225:3 net_225:2 0.0050
7 net_225:3 net_225:4 0.0075
8 net_225:5 net_225:4 0.0050
*END

*D_NET n116 0.8996
*CONN
*P n116 I
*I inst_442:A1 I
*CAP
1 n116 0.2975
2 inst_442:A1 0.0166
3 n116:1 0.3051
4 n116:2 0.0812
5 n116:3 0.0812
6 n116:4 0.0190
7 n116:5 0.0410
8 n116:6 0.0400
9 n116:7 0.0180
*RES
2 inst_442:A1 n116:7 0.0050
3 n116:1 n116 0.0245
4 n116:2 n116:1 0.0050
5 n116:2 n116:3 0.0061
6 n116:4 n116:3 0.0050
7 n116:5 n116:4 0.0010
8 n116:5 n116:6 0.0020
9 n116:7 n116:6 0.0010
*END

*D_NET net_636 2.6990
*CONN
*I inst_669:Z O
*I inst_834:A I
*I inst_118:A I
*I inst_685:B I
*CAP
1 inst_669:Z 0.0166
2 inst_834:A 0.0166
3 inst_118:A 0.0332
4 inst_685:B 0.0072
5 net_636:1 0.0202
6 net_636:2 0.0202
7 net_636:3 0.0438
8 net_636:4 0.0563
9 net_636:5 0.2343
10 net_636:6 0.2343
11 net_636:7 0.0100
12 net_636:8 0.0100
13 net_636:9 0.0301
14 net_636:10 0.0301
15 net_636:11 0.0364
16 net_636:12 0.0326
17 net_636:13 0.0675
18 net_636:14 0.0675
19 net_636:15 0.0444
20 net_636:16 0.0444
21 net_636:17 0.2015
22 net_636:18 0.2015
23 net_636:19 0.0361
24 net_636:20 0.0361
25 net_636:21 0.2977
26 net_636:22 0.2977
27 net_636:23 0.1967
28 net_636:24 0.1967
29 net_636:25 0.0091
30 net_636:26 0.0091
31 net_636:27 0.0449
32 net_636:28 0.0449
33 net_636:29 0.0155
34 net_636:30 0.0178
35 net_636:31 0.0178
36 net_636:32 0.0201
*RES
2 inst_118:A net_636:11 0.0050
3 inst_685:B net_636:29 0.0010
4 net_636:1 inst_834:A 0.0050
5 net_636:2 net_636:1 0.0010
6 net_636:3 net_636:2 0.0050
7 net_636:3 net_636:4 0.0052
8 net_636:4 net_636:32 0.0016
9 net_636:4 net_636:5 0.0050
10 net_636:5 net_636:6 0.0067
11 net_636:6 net_636:7 0.0050
12 net_636:7 net_636:8 0.0010
13 net_636:8 net_636:9 0.0050
14 net_636:9 net_636:10 0.0015
15 net_636:10 inst_118:A 0.0050
16 net_636:11 net_636:12 0.0030
17 net_636:12 net_636:13 0.0050
18 net_636:14 net_636:13 0.0096
19 net_636:14 net_636:15 0.0050
20 net_636:15 net_636:16 0.0010
21 net_636:16 net_636:17 0.0030
22 net_636:18 net_636:17 0.0063
23 net_636:18 net_636:19 0.0030
24 net_636:19 net_636:20 0.0013
25 net_636:20 net_636:21 0.0050
26 net_636:22 net_636:21 0.0350
27 net_636:22 net_636:23 0.0050
28 net_636:23 net_636:24 0.0078
29 net_636:24 net_636:25 0.0050
30 net_636:26 net_636:25 0.0010
31 net_636:26 net_636:27 0.0050
32 net_636:27 net_636:28 0.0030
33 net_636:28 net_636:29 0.0050
34 net_636:30 inst_669:Z 0.0050
35 net_636:31 net_636:30 0.0010
36 net_636:32 net_636:31 0.0050
*END

*D_NET net_263 0.0143
*CONN
*I inst_158:ZN O
*I inst_527:A2 I
*CAP
1 inst_158:ZN 0.0072
2 inst_527:A2 0.0072
*RES
2 inst_158:ZN inst_527:A2 0.0010
*END

*D_NET net_252 1.3936
*CONN
*I inst_880:ZN O
*I inst_138:A3 I
*CAP
1 inst_880:ZN 0.0166
2 inst_138:A3 0.0166
3 net_252:1 0.0152
4 net_252:2 0.0147
5 net_252:3 0.0147
6 net_252:4 0.0846
7 net_252:5 0.0846
8 net_252:6 0.0141
9 net_252:7 0.5278
10 net_252:8 0.5278
11 net_252:9 0.0141
12 net_252:10 0.0177
13 net_252:11 0.0151
14 net_252:12 0.0151
15 net_252:13 0.0152
*RES
2 inst_138:A3 net_252:13 0.0050
3 net_252:1 inst_880:ZN 0.0050
4 net_252:2 net_252:1 0.0050
5 net_252:3 net_252:2 0.0010
6 net_252:4 net_252:3 0.0050
7 net_252:5 net_252:4 0.0023
8 net_252:6 net_252:5 0.0030
9 net_252:7 net_252:6 0.0030
10 net_252:8 net_252:7 0.0122
11 net_252:9 net_252:8 0.0030
12 net_252:10 net_252:9 0.0030
13 net_252:11 net_252:10 0.0050
14 net_252:12 net_252:11 0.0010
15 net_252:13 net_252:12 0.0050
*END

*D_NET net_124 3.3167
*CONN
*I inst_769:ZN O
*I inst_437:A2 I
*I inst_875:A2 I
*I inst_447:A2 I
*I inst_645:A I
*CAP
1 inst_769:ZN 0.0072
2 inst_437:A2 0.0166
3 inst_875:A2 0.0166
4 inst_447:A2 0.0166
5 inst_645:A 0.0166
6 net_124:1 0.0221
7 net_124:2 0.0196
8 net_124:3 0.0196
9 net_124:4 0.0210
10 net_124:5 0.0210
11 net_124:6 0.2138
12 net_124:7 0.3205
13 net_124:8 0.1067
14 net_124:9 0.0527
15 net_124:10 0.0527
16 net_124:11 0.0141
17 net_124:12 0.4524
18 net_124:13 0.4524
19 net_124:14 0.0141
20 net_124:15 0.1503
21 net_124:16 0.1503
22 net_124:17 0.1650
23 net_124:18 0.1077
24 net_124:19 0.0618
25 net_124:20 0.0618
26 net_124:21 0.0186
27 net_124:22 0.0186
28 net_124:23 0.0520
29 net_124:24 0.0520
30 net_124:25 0.0183
31 net_124:26 0.0152
32 net_124:27 0.0213
33 net_124:28 0.0213
34 net_124:29 0.0626
35 net_124:30 0.0626
36 net_124:31 0.0196
37 net_124:32 0.0152
38 net_124:33 0.1121
39 net_124:34 0.1121
40 net_124:35 0.0486
41 net_124:36 0.0486
42 net_124:37 0.0649
*RES
2 inst_769:ZN net_124:31 0.0010
3 net_124:1 inst_447:A2 0.0050
4 net_124:2 net_124:1 0.0050
5 net_124:2 net_124:3 0.0010
6 net_124:4 net_124:3 0.0050
7 net_124:4 net_124:5 0.0010
8 net_124:6 net_124:5 0.0030
9 net_124:6 net_124:7 0.0071
10 net_124:7 net_124:8 0.0046
11 net_124:7 net_124:30 0.0030
12 net_124:9 net_124:8 0.0030
13 net_124:9 net_124:10 0.0017
14 net_124:11 net_124:10 0.0030
15 net_124:12 net_124:11 0.0030
16 net_124:12 net_124:13 0.0155
17 net_124:14 net_124:13 0.0030
18 net_124:15 net_124:14 0.0030
19 net_124:15 net_124:16 0.0048
20 net_124:17 net_124:16 0.0050
21 net_124:17 net_124:18 0.0088
22 net_124:18 net_124:19 0.0050
23 net_124:19 net_124:20 0.0080
24 net_124:20 inst_875:A2 0.0050
25 net_124:21 inst_437:A2 0.0050
26 net_124:22 net_124:21 0.0010
27 net_124:23 net_124:22 0.0050
28 net_124:23 net_124:24 0.0034
29 net_124:25 net_124:1 0.0010
30 net_124:25 net_124:24 0.0050
31 net_124:26 inst_645:A 0.0050
32 net_124:27 net_124:26 0.0050
33 net_124:28 net_124:27 0.0010
34 net_124:29 net_124:28 0.0050
35 net_124:30 net_124:29 0.0023
36 net_124:32 net_124:31 0.0050
37 net_124:33 net_124:32 0.0050
38 net_124:33 net_124:34 0.0130
39 net_124:35 net_124:34 0.0050
40 net_124:35 net_124:36 0.0013
41 net_124:37 net_124:17 0.0060
42 net_124:37 net_124:36 0.0050
*END

*D_NET net_343 0.9887
*CONN
*I inst_807:ZN O
*I inst_56:A I
*I inst_884:A1 I
*I inst_555:A1 I
*CAP
1 inst_807:ZN 0.0166
2 inst_56:A 0.0166
3 inst_884:A1 0.0166
4 inst_555:A1 0.0166
5 net_343:1 0.0395
6 net_343:2 0.0395
7 net_343:3 0.1351
8 net_343:4 0.1663
9 net_343:5 0.0426
10 net_343:6 0.0277
11 net_343:7 0.0277
12 net_343:8 0.0654
13 net_343:9 0.1354
14 net_343:10 0.0776
15 net_343:11 0.0161
16 net_343:12 0.0161
17 net_343:13 0.0455
18 net_343:14 0.0455
19 net_343:15 0.0212
20 net_343:16 0.0212
*RES
2 net_343:1 inst_56:A 0.0050
3 net_343:1 net_343:2 0.0030
4 net_343:3 net_343:2 0.0050
5 net_343:3 net_343:4 0.0143
6 net_343:4 net_343:5 0.0047
7 net_343:5 net_343:6 0.0050
8 net_343:7 net_343:6 0.0030
9 net_343:7 net_343:8 0.0050
10 net_343:8 net_343:9 0.0061
11 net_343:9 net_343:10 0.0061
12 net_343:9 net_343:14 0.0050
13 net_343:10 net_343:11 0.0050
14 net_343:12 inst_555:A1 0.0050
15 net_343:12 net_343:11 0.0010
16 net_343:13 inst_884:A1 0.0050
17 net_343:14 net_343:13 0.0055
18 net_343:15 inst_807:ZN 0.0050
19 net_343:16 net_343:4 0.0050
20 net_343:16 net_343:15 0.0015
*END

*D_NET n119 0.6402
*CONN
*P n119 I
*I inst_876:A1 I
*CAP
1 n119 0.2607
2 inst_876:A1 0.0366
3 n119:1 0.2756
4 n119:2 0.0224
5 n119:3 0.0449
*RES
2 n119:1 n119 0.0250
3 n119:1 n119:2 0.0010
4 n119:3 inst_876:A1 0.0052
5 n119:3 n119:2 0.0050
*END

*D_NET net_160 3.7432
*CONN
*I inst_780:ZN O
*I inst_432:A2 I
*I inst_433:A2 I
*I inst_436:A2 I
*I inst_438:A2 I
*I inst_439:A2 I
*I inst_876:A2 I
*I inst_440:A2 I
*I inst_877:A2 I
*I inst_441:A2 I
*I inst_442:A2 I
*I inst_443:A2 I
*I inst_444:A2 I
*I inst_446:A2 I
*I inst_878:A2 I
*I inst_879:A2 I
*I inst_450:A2 I
*I inst_370:A3 I
*I inst_371:A3 I
*CAP
1 inst_780:ZN 0.0468
2 inst_432:A2 0.0077
3 inst_433:A2 0.0270
4 inst_436:A2 0.0166
5 inst_438:A2 0.0166
6 inst_439:A2 0.0166
7 inst_876:A2 0.0166
8 inst_440:A2 0.0166
9 inst_877:A2 0.0166
10 inst_441:A2 0.0166
11 inst_442:A2 0.0166
12 inst_443:A2 0.0411
13 inst_444:A2 0.0215
14 inst_446:A2 0.0166
15 inst_878:A2 0.0166
16 inst_879:A2 0.0166
17 inst_450:A2 0.0287
18 inst_370:A3 0.0166
19 inst_371:A3 0.0702
20 net_160:1 0.0758
21 net_160:2 0.0898
22 net_160:3 0.0467
23 net_160:4 0.0916
24 net_160:5 0.0810
25 net_160:6 0.0798
26 net_160:7 0.0798
27 net_160:8 0.0660
28 net_160:9 0.0152
29 net_160:10 0.0278
30 net_160:11 0.0911
31 net_160:12 0.1073
32 net_160:13 0.0152
33 net_160:14 0.0793
34 net_160:15 0.0772
35 net_160:16 0.0772
36 net_160:17 0.0152
37 net_160:18 0.0152
38 net_160:19 0.0396
39 net_160:20 0.0682
40 net_160:21 0.0362
41 net_160:22 0.0869
42 net_160:23 0.0991
43 net_160:24 0.0759
44 net_160:25 0.0675
45 net_160:26 0.0120
46 net_160:27 0.0120
47 net_160:28 0.0177
48 net_160:29 0.1216
49 net_160:30 0.1216