*SPEF "IEEE 1481-1998"
*DESIGN "changes"
*DATE "Tue Dec 02 20:18:04 2014"
*VENDOR "TAU 2015 Contest"
*PROGRAM "Benchmark Parasitic Generator"
*VERSION "0.0"
*DESIGN_FLOW "NETLIST_TYPE_VERILOG"
*DIVIDER /
*DELIMITER :
*BUS_DELIMITER [ ]
*T_UNIT 1 PS
*C_UNIT 1 FF
*R_UNIT 1 KOHM
*L_UNIT 1 UH

*D_NET TAUNET_9 1.7439
*CONN
*I inst_371:ZN O
*I TAUGATE_9:A I
*CAP
1 inst_371:ZN 0.2611
2 TAUNET_9:1 0.4098
3 TAUNET_9:2 0.5009
4 TAUNET_9:3 0.2843
5 TAUGATE_9:A 0.2878
*RES
2 inst_371:ZN TAUNET_9:1 0.1659
3 TAUNET_9:1 TAUNET_9:2 0.2742
4 TAUNET_9:2 TAUNET_9:3 0.3494
5 TAUNET_9:3 TAUGATE_9:A 0.1485
*END

*D_NET TAUNET_5 1.3760
*CONN
*I inst_667:Z O
*I TAUGATE_5:A I
*CAP
1 inst_667:Z 0.2110
2 TAUNET_5:1 0.3070
3 TAUNET_5:2 0.3583
4 TAUNET_5:3 0.1395
5 TAUNET_5:4 0.0646
6 TAUNET_5:5 0.0794
7 TAUGATE_5:A 0.2161
*RES
2 inst_667:Z TAUNET_5:1 0.1614
3 TAUNET_5:1 TAUNET_5:2 0.3312
4 TAUNET_5:2 TAUNET_5:3 0.3755
5 TAUNET_5:3 TAUNET_5:4 0.4644
6 TAUNET_5:4 TAUNET_5:5 0.4559
7 TAUNET_5:5 TAUGATE_5:A 0.4050
*END

*D_NET net_281 0.4849
*CONN
*I TAUGATE_8:Z O
*I inst_287:A1 I
*CAP
1 TAUGATE_8:Z 0.1670
2 net_281:1 0.2440
3 net_281:2 0.0332
4 inst_287:A1 0.0406
*RES
2 TAUGATE_8:Z net_281:1 0.2732
3 net_281:1 net_281:2 0.0073
4 net_281:2 inst_287:A1 0.1308
*END

*D_NET TAUNET_8 1.8161
*CONN
*I inst_286:ZN O
*I TAUGATE_8:A I
*CAP
1 inst_286:ZN 0.2909
2 TAUNET_8:1 0.0740
3 TAUNET_8:2 0.4871
4 TAUNET_8:3 0.4951
5 TAUNET_8:4 0.4125
6 TAUGATE_8:A 0.0565
*RES
2 inst_286:ZN TAUNET_8:1 0.1285
3 TAUNET_8:1 TAUNET_8:2 0.0292
4 TAUNET_8:2 TAUNET_8:3 0.2926
5 TAUNET_8:3 TAUNET_8:4 0.4507
6 TAUNET_8:4 TAUGATE_8:A 0.3356
*END

*D_NET net_619 2.3760
*CONN
*I TAUGATE_5:Z O
*I inst_211:A3 I
*I inst_681:B I
*CAP
1 TAUGATE_5:Z 0.3845
2 net_619:1 0.3056
3 net_619:2 0.3464
4 net_619:3 0.0305
5 net_619:4 0.2383
6 net_619:5 0.4020
7 inst_681:B 0.2529
8 net_619:6 0.2236
9 inst_211:A3 0.1922
*RES
2 TAUGATE_5:Z net_619:1 0.2665
3 net_619:1 net_619:2 0.4354
4 net_619:2 net_619:3 0.1977
5 net_619:3 net_619:4 0.0788
6 net_619:4 net_619:5 0.3276
7 net_619:5 inst_681:B 0.3833
8 net_619:4 net_619:6 0.2805
9 net_619:6 inst_211:A3 0.1322
*END

*D_NET n845 2.0360
*CONN
*I TAUGATE_7:Z O
*P n845 O
*CAP
1 TAUGATE_7:Z 0.4017
2 n845:1 0.2976
3 n845:2 0.2331
4 n845:3 0.2927
5 n845:4 0.3943
6 n845:5 0.2211
7 n845 0.1955
*RES
2 TAUGATE_7:Z n845:1 0.1868
3 n845:1 n845:2 0.4889
4 n845:2 n845:3 0.0703
5 n845:3 n845:4 0.3298
6 n845:4 n845:5 0.4131
7 n845:5 n845 0.3310
*END

*D_NET TAUNET_6 1.3534
*CONN
*P n272 I
*I TAUGATE_6:A I
*CAP
1 n272 0.4792
2 TAUNET_6:1 0.0717
3 TAUNET_6:2 0.3990
4 TAUGATE_6:A 0.4035
*RES
2 n272 TAUNET_6:1 0.0219
3 TAUNET_6:1 TAUNET_6:2 0.0830
4 TAUNET_6:2 TAUGATE_6:A 0.4539
*END

*D_NET n272 2.1062
*CONN
*I TAUGATE_6:Z O
*I inst_623:B I
*CAP
1 TAUGATE_6:Z 0.3196
2 n272:1 0.3591
3 n272:2 0.2780
4 n272:3 0.2022
5 n272:4 0.1593
6 n272:5 0.4382
7 inst_623:B 0.3498
*RES
2 TAUGATE_6:Z n272:1 0.4055
3 n272:1 n272:2 0.4519
4 n272:2 n272:3 0.4658
5 n272:3 n272:4 0.3690
6 n272:4 n272:5 0.4019
7 n272:5 inst_623:B 0.0632
*END

*D_NET TAUNET_7 2.0111
*CONN
*I inst_431:ZN O
*I TAUGATE_7:A I
*CAP
1 inst_431:ZN 0.4700
2 TAUNET_7:1 0.3545
3 TAUNET_7:2 0.1033
4 TAUNET_7:3 0.4316
5 TAUNET_7:4 0.1782
6 TAUGATE_7:A 0.4734
*RES
2 inst_431:ZN TAUNET_7:1 0.0376
3 TAUNET_7:1 TAUNET_7:2 0.0972
4 TAUNET_7:2 TAUNET_7:3 0.3594
5 TAUNET_7:3 TAUNET_7:4 0.0525
6 TAUNET_7:4 TAUGATE_7:A 0.3248
*END

*D_NET net_162 1.7532
*CONN
*I TAUGATE_9:Z O
*I inst_416:A1 I
*CAP
1 TAUGATE_9:Z 0.1267
2 net_162:1 0.2434
3 net_162:2 0.3726
4 net_162:3 0.2980
5 net_162:4 0.2454
6 inst_416:A1 0.4670
*RES
2 TAUGATE_9:Z net_162:1 0.1921
3 net_162:1 net_162:2 0.1376
4 net_162:2 net_162:3 0.4443
5 net_162:3 net_162:4 0.1288
6 net_162:4 inst_416:A1 0.3022
*END

