*SPEF "IEEE 1481-1998"
*DESIGN "changes"
*DATE "Tue Dec 02 20:18:04 2014"
*VENDOR "TAU 2015 Contest"
*PROGRAM "Benchmark Parasitic Generator"
*VERSION "0.0"
*DESIGN_FLOW "NETLIST_TYPE_VERILOG"
*DIVIDER /
*DELIMITER :
*BUS_DELIMITER [ ]
*T_UNIT 1 PS
*C_UNIT 1 FF
*R_UNIT 1 KOHM
*L_UNIT 1 UH

*D_NET TAUNET_4 1.7439
*CONN
*I inst_653:Z O
*I TAUGATE_4:A I
*CAP
1 inst_653:Z 0.2611
2 TAUNET_4:1 0.4098
3 TAUNET_4:2 0.5009
4 TAUNET_4:3 0.2843
5 TAUGATE_4:A 0.2878
*RES
2 inst_653:Z TAUNET_4:1 0.1659
3 TAUNET_4:1 TAUNET_4:2 0.2742
4 TAUNET_4:2 TAUNET_4:3 0.3494
5 TAUNET_4:3 TAUGATE_4:A 0.1485
*END

*D_NET TAUNET_2 1.3760
*CONN
*I inst_302:ZN O
*I TAUGATE_2:A I
*CAP
1 inst_302:ZN 0.2110
2 TAUNET_2:1 0.3070
3 TAUNET_2:2 0.3583
4 TAUNET_2:3 0.1395
5 TAUNET_2:4 0.0646
6 TAUNET_2:5 0.0794
7 TAUGATE_2:A 0.2161
*RES
2 inst_302:ZN TAUNET_2:1 0.1614
3 TAUNET_2:1 TAUNET_2:2 0.3312
4 TAUNET_2:2 TAUNET_2:3 0.3755
5 TAUNET_2:3 TAUNET_2:4 0.4644
6 TAUNET_2:4 TAUNET_2:5 0.4559
7 TAUNET_2:5 TAUGATE_2:A 0.4050
*END

*D_NET net_347 0.4849
*CONN
*I TAUGATE_2:Z O
*I inst_78:B I
*CAP
1 TAUGATE_2:Z 0.1670
2 net_347:1 0.2440
3 net_347:2 0.0332
4 inst_78:B 0.0406
*RES
2 TAUGATE_2:Z net_347:1 0.2732
3 net_347:1 net_347:2 0.0073
4 net_347:2 inst_78:B 0.1308
*END

*D_NET TAUNET_3 1.8161
*CONN
*I inst_699:Z O
*I TAUGATE_3:A I
*CAP
1 inst_699:Z 0.2909
2 TAUNET_3:1 0.0740
3 TAUNET_3:2 0.4871
4 TAUNET_3:3 0.4951
5 TAUNET_3:4 0.4125
6 TAUGATE_3:A 0.0565
*RES
2 inst_699:Z TAUNET_3:1 0.1285
3 TAUNET_3:1 TAUNET_3:2 0.0292
4 TAUNET_3:2 TAUNET_3:3 0.2926
5 TAUNET_3:3 TAUNET_3:4 0.4507
6 TAUNET_3:4 TAUGATE_3:A 0.3356
*END

*D_NET n861 6.9097
*CONN
*I TAUGATE_4:Z O
*P n861 O
*I inst_657:B I
*I inst_656:B I
*I inst_658:B I
*I inst_655:B I
*CAP
1 TAUGATE_4:Z 0.3845
2 n861:1 0.3056
3 n861:2 0.3464
4 n861:3 0.0305
5 n861:4 0.2383
6 n861:5 0.4020
7 inst_658:B 0.2529
8 n861:6 0.2236
9 inst_657:B 0.1922
10 n861:7 0.4680
11 n861:8 0.2976
12 n861:9 0.2331
13 n861:10 0.2927
14 n861:11 0.3943
15 inst_656:B 0.2211
16 n861:12 0.4792
17 n861:13 0.1808
18 n861:14 0.0717
19 n861 0.3990
20 n861:15 0.4976
21 n861:16 0.3591
22 n861:17 0.2780
23 n861:18 0.2022
24 inst_655:B 0.1593
*RES
2 TAUGATE_4:Z n861:1 0.2665
3 n861:1 n861:2 0.4354
4 n861:2 n861:3 0.1977
5 n861:3 n861:4 0.0788
6 n861:4 n861:5 0.3276
7 n861:5 inst_658:B 0.3833
8 n861:4 n861:6 0.2805
9 n861:6 inst_657:B 0.1322
10 n861:3 n861:7 0.1955
11 n861:7 n861:8 0.1868
12 n861:8 n861:9 0.4889
13 n861:9 n861:10 0.0703
14 n861:10 n861:11 0.3298
15 n861:11 inst_656:B 0.4131
16 n861:7 n861:12 0.4035
17 n861:12 n861:13 0.0219
18 n861:13 n861:14 0.0830
19 n861:14 n861 0.4539
20 n861:4 n861:15 0.4382
21 n861:15 n861:16 0.3498
22 n861:16 n861:17 0.4055
23 n861:17 n861:18 0.4519
24 n861:18 inst_655:B 0.4658
*END

*D_NET net_673 1.1222
*CONN
*I TAUGATE_3:Z O
*I inst_709:A I
*CAP
1 TAUGATE_3:Z 0.4019
2 net_673:1 0.2503
3 inst_709:A 0.4700
*RES
2 TAUGATE_3:Z net_673:1 0.3789
3 net_673:1 inst_709:A 0.3545
*END

