*SPEF "IEEE 1481-1998"
*DESIGN "changes"
*DATE "Tue Dec 02 20:18:07 2014"
*VENDOR "TAU 2015 Contest"
*PROGRAM "Benchmark Parasitic Generator"
*VERSION "0.0"
*DESIGN_FLOW "NETLIST_TYPE_VERILOG"
*DIVIDER /
*DELIMITER :
*BUS_DELIMITER [ ]
*T_UNIT 1 PS
*C_UNIT 1 FF
*R_UNIT 1 KOHM
*L_UNIT 1 UH

*D_NET TAUNET_79 1.7439
*CONN
*I TAUGATE_690:Z O
*I TAUGATE_79:A I
*CAP
1 TAUGATE_690:Z 0.2611
2 TAUNET_79:1 0.4098
3 TAUNET_79:2 0.5009
4 TAUNET_79:3 0.2843
5 TAUGATE_79:A 0.2878
*RES
2 TAUGATE_690:Z TAUNET_79:1 0.1659
3 TAUNET_79:1 TAUNET_79:2 0.2742
4 TAUNET_79:2 TAUNET_79:3 0.3494
5 TAUNET_79:3 TAUGATE_79:A 0.1485
*END

*D_NET net_148 1.3760
*CONN
*I inst_641:Z O
*I inst_284:A2 I
*CAP
1 inst_641:Z 0.2110
2 net_148:1 0.3070
3 net_148:2 0.3583
4 net_148:3 0.1395
5 net_148:4 0.0646
6 net_148:5 0.0794
7 inst_284:A2 0.2161
*RES
2 inst_641:Z net_148:1 0.1614
3 net_148:1 net_148:2 0.3312
4 net_148:2 net_148:3 0.3755
5 net_148:3 net_148:4 0.4644
6 net_148:4 net_148:5 0.4559
7 net_148:5 inst_284:A2 0.4050
*END

*D_NET net_230 0.4849
*CONN
*I inst_188:ZN O
*I inst_301:A1 I
*CAP
1 inst_188:ZN 0.1670
2 net_230:1 0.2440
3 net_230:2 0.0332
4 inst_301:A1 0.0406
*RES
2 inst_188:ZN net_230:1 0.2732
3 net_230:1 net_230:2 0.0073
4 net_230:2 inst_301:A1 0.1308
*END

*D_NET TAUNET_698 5.5112
*CONN
*I TAUGATE_261:Z O
*I TAUGATE_698:A I
*I inst_872:A1 I
*I inst_738:S I
*I inst_213:A1 I
*CAP
1 TAUGATE_261:Z 0.2909
2 TAUNET_698:1 0.0740
3 TAUNET_698:2 0.4871
4 TAUNET_698:3 0.4951
5 TAUNET_698:4 0.4125
6 inst_872:A1 0.0565
7 TAUNET_698:5 0.4708
8 TAUNET_698:6 0.3056
9 TAUNET_698:7 0.3464
10 TAUNET_698:8 0.0305
11 TAUGATE_698:A 0.2383
12 TAUNET_698:9 0.3833
13 TAUNET_698:10 0.3292
14 TAUNET_698:11 0.0716
15 TAUNET_698:12 0.2236
16 inst_738:S 0.1922
17 TAUNET_698:13 0.2927
18 TAUNET_698:14 0.3943
19 TAUNET_698:15 0.2211
20 inst_213:A1 0.1955
*RES
2 TAUGATE_261:Z TAUNET_698:1 0.1285
3 TAUNET_698:1 TAUNET_698:2 0.0292
4 TAUNET_698:2 TAUNET_698:3 0.2926
5 TAUNET_698:3 TAUNET_698:4 0.4507
6 TAUNET_698:4 inst_872:A1 0.3356
7 TAUNET_698:4 TAUNET_698:5 0.4020
8 TAUNET_698:5 TAUNET_698:6 0.2529
9 TAUNET_698:6 TAUNET_698:7 0.2665
10 TAUNET_698:7 TAUNET_698:8 0.4354
11 TAUNET_698:8 TAUGATE_698:A 0.1977
12 TAUNET_698:1 TAUNET_698:9 0.2805
13 TAUNET_698:9 TAUNET_698:10 0.1322
14 TAUNET_698:10 TAUNET_698:11 0.1905
15 TAUNET_698:11 TAUNET_698:12 0.4017
16 TAUNET_698:12 inst_738:S 0.4680
17 TAUNET_698:8 TAUNET_698:13 0.1868
18 TAUNET_698:13 TAUNET_698:14 0.4889
19 TAUNET_698:14 TAUNET_698:15 0.0703
20 TAUNET_698:15 inst_213:A1 0.3298
*END

*D_NET TAUNET_361 2.9580
*CONN
*I TAUGATE_678:Z O
*I TAUGATE_361:A I
*I inst_545:A2 I
*CAP
1 TAUGATE_678:Z 0.3310
2 TAUNET_361:1 0.4792
3 TAUNET_361:2 0.1808
4 TAUNET_361:3 0.0717
5 inst_545:A2 0.3990
6 TAUNET_361:4 0.4976
7 TAUNET_361:5 0.3591
8 TAUNET_361:6 0.2780
9 TAUNET_361:7 0.2022
10 TAUGATE_361:A 0.1593
*RES
2 TAUGATE_678:Z TAUNET_361:1 0.4035
3 TAUNET_361:1 TAUNET_361:2 0.0219
4 TAUNET_361:2 TAUNET_361:3 0.0830
5 TAUNET_361:3 inst_545:A2 0.4539
6 TAUNET_361:1 TAUNET_361:4 0.4382
7 TAUNET_361:4 TAUNET_361:5 0.3498
8 TAUNET_361:5 TAUNET_361:6 0.4055
9 TAUNET_361:6 TAUNET_361:7 0.4519
10 TAUNET_361:7 TAUGATE_361:A 0.4658
*END

