*SPEF "IEEE 1481-1998"
*DESIGN "changes"
*DATE "Tue Dec 02 20:18:04 2014"
*VENDOR "TAU 2015 Contest"
*PROGRAM "Benchmark Parasitic Generator"
*VERSION "0.0"
*DESIGN_FLOW "NETLIST_TYPE_VERILOG"
*DIVIDER /
*DELIMITER :
*BUS_DELIMITER [ ]
*T_UNIT 1 PS
*C_UNIT 1 FF
*R_UNIT 1 KOHM
*L_UNIT 1 UH

*D_NET TAUNET_13 1.7439
*CONN
*P n54 I
*I TAUGATE_13:A I
*CAP
1 n54 0.2611
2 TAUNET_13:1 0.4098
3 TAUNET_13:2 0.5009
4 TAUNET_13:3 0.2843
5 TAUGATE_13:A 0.2878
*RES
2 n54 TAUNET_13:1 0.1659
3 TAUNET_13:1 TAUNET_13:2 0.2742
4 TAUNET_13:2 TAUNET_13:3 0.3494
5 TAUNET_13:3 TAUGATE_13:A 0.1485
*END

*D_NET TAUNET_12 1.3760
*CONN
*I inst_217:ZN O
*I TAUGATE_12:A I
*CAP
1 inst_217:ZN 0.2110
2 TAUNET_12:1 0.3070
3 TAUNET_12:2 0.3583
4 TAUNET_12:3 0.1395
5 TAUNET_12:4 0.0646
6 TAUNET_12:5 0.0794
7 TAUGATE_12:A 0.2161
*RES
2 inst_217:ZN TAUNET_12:1 0.1614
3 TAUNET_12:1 TAUNET_12:2 0.3312
4 TAUNET_12:2 TAUNET_12:3 0.3755
5 TAUNET_12:3 TAUNET_12:4 0.4644
6 TAUNET_12:4 TAUNET_12:5 0.4559
7 TAUNET_12:5 TAUGATE_12:A 0.4050
*END

*D_NET net_304 0.4849
*CONN
*I TAUGATE_33:Z O
*I inst_529:A2 I
*CAP
1 TAUGATE_33:Z 0.1670
2 net_304:1 0.2440
3 net_304:2 0.0332
4 inst_529:A2 0.0406
*RES
2 TAUGATE_33:Z net_304:1 0.2732
3 net_304:1 net_304:2 0.0073
4 net_304:2 inst_529:A2 0.1308
*END

*D_NET net_47 1.8161
*CONN
*I TAUGATE_24:Z O
*I inst_199:A1 I
*CAP
1 TAUGATE_24:Z 0.2909
2 net_47:1 0.0740
3 net_47:2 0.4871
4 net_47:3 0.4951
5 net_47:4 0.4125
6 inst_199:A1 0.0565
*RES
2 TAUGATE_24:Z net_47:1 0.1285
3 net_47:1 net_47:2 0.0292
4 net_47:2 net_47:3 0.2926
5 net_47:3 net_47:4 0.4507
6 net_47:4 inst_199:A1 0.3356
*END

*D_NET n457 6.9097
*CONN
*I TAUGATE_57:Z O
*I inst_198:A2 I
*I inst_16:A I
*I inst_503:A1 I
*I inst_266:A1 I
*I inst_756:A I
*CAP
1 TAUGATE_57:Z 0.3845
2 n457:1 0.3056
3 n457:2 0.3464
4 n457:3 0.0305
5 n457:4 0.2383
6 n457:5 0.4020
7 inst_266:A1 0.2529
8 n457:6 0.2236
9 inst_16:A 0.1922
10 n457:7 0.4680
11 n457:8 0.2976
12 n457:9 0.2331
13 n457:10 0.2927
14 n457:11 0.3943
15 inst_503:A1 0.2211
16 n457:12 0.4792
17 n457:13 0.1808
18 n457:14 0.0717
19 inst_198:A2 0.3990
20 n457:15 0.4976
21 n457:16 0.3591
22 n457:17 0.2780
23 n457:18 0.2022
24 inst_756:A 0.1593
*RES
2 TAUGATE_57:Z n457:1 0.2665
3 n457:1 n457:2 0.4354
4 n457:2 n457:3 0.1977
5 n457:3 n457:4 0.0788
6 n457:4 n457:5 0.3276
7 n457:5 inst_266:A1 0.3833
8 n457:4 n457:6 0.2805
9 n457:6 inst_16:A 0.1322
10 n457:3 n457:7 0.1955
11 n457:7 n457:8 0.1868
12 n457:8 n457:9 0.4889
13 n457:9 n457:10 0.0703
14 n457:10 n457:11 0.3298
15 n457:11 inst_503:A1 0.4131
16 n457:7 n457:12 0.4035
17 n457:12 n457:13 0.0219
18 n457:13 n457:14 0.0830
19 n457:14 inst_198:A2 0.4539
20 n457:4 n457:15 0.4382
21 n457:15 n457:16 0.3498
22 n457:16 n457:17 0.4055
23 n457:17 n457:18 0.4519
24 n457:18 inst_756:A 0.4658
*END

*D_NET n161 2.2534
*CONN
*I TAUGATE_22:Z O
*I inst_353:A2 I
*I inst_360:A2 I
*CAP
1 TAUGATE_22:Z 0.4019
2 n161:1 0.2503
3 inst_360:A2 0.4700
4 n161:2 0.0376
5 n161:3 0.0972
6 n161:4 0.3594
7 n161:5 0.0525
8 n161:6 0.3248
9 inst_353:A2 0.2597
*RES
2 TAUGATE_22:Z n161:1 0.3789
3 n161:1 inst_360:A2 0.3545
4 n161:1 n161:2 0.1267
5 n161:2 n161:3 0.3840
6 n161:3 n161:4 0.2434
7 n161:4 n161:5 0.3726
8 n161:5 n161:6 0.2980
9 n161:6 inst_353:A2 0.2454
*END

*D_NET n54 4.8515
*CONN
*I TAUGATE_13:Z O
*I inst_888:A1 I
*I inst_560:A1 I
*I inst_889:A1 I
*I inst_45:A I
*I inst_523:A1 I
*CAP
1 TAUGATE_13:Z 0.1921
2 n54:1 0.4443
3 n54:2 0.1288
4 inst_523:A1 0.3022
5 n54:3 0.0282
6 n54:4 0.3089
7 n54:5 0.0253
8 n54:6 0.3105
9 inst_560:A1 0.1881
10 n54:7 0.3854
11 inst_889:A1 0.3580
12 n54:8 0.2154
13 n54:9 0.4921
14 n54:10 0.1648
15 inst_45:A 0.1855
16 n54:11 0.1494
17 n54:12 0.3290
18 n54:13 0.1620
19 n54:14 0.0029
20 n54:15 0.2883
21 inst_888:A1 0.1903
*RES
2 TAUGATE_13:Z n54:1 0.1405
3 n54:1 n54:2 0.0668
4 n54:2 inst_523:A1 0.3699
5 n54:1 n54:3 0.2034
6 n54:3 n54:4 0.1592
7 n54:4 n54:5 0.3147
8 n54:5 n54:6 0.2761
9 n54:6 inst_560:A1 0.3643
10 n54:3 n54:7 0.3774
11 n54:7 inst_889:A1 0.2731
12 n54:1 n54:8 0.0112
13 n54:8 n54:9 0.3530
14 n54:9 n54:10 0.1128
15 n54:10 inst_45:A 0.2239
16 n54:2 n54:11 0.4381
17 n54:11 n54:12 0.3484
18 n54:12 n54:13 0.0801
19 n54:13 n54:14 0.1392
20 n54:14 n54:15 0.1891
21 n54:15 inst_888:A1 0.0464
*END

*D_NET TAUNET_35 1.0649
*CONN
*I inst_371:ZN O
*I TAUGATE_35:A I
*CAP
1 inst_371:ZN 0.0279
2 TAUNET_35:1 0.0649
3 TAUNET_35:2 0.0510
4 TAUNET_35:3 0.1600
5 TAUNET_35:4 0.1748
6 TAUNET_35:5 0.4787
7 TAUGATE_35:A 0.1076
*RES
2 inst_371:ZN TAUNET_35:1 0.4606
3 TAUNET_35:1 TAUNET_35:2 0.3388
4 TAUNET_35:2 TAUNET_35:3 0.4657
5 TAUNET_35:3 TAUNET_35:4 0.3595
6 TAUNET_35:4 TAUNET_35:5 0.2471
7 TAUNET_35:5 TAUGATE_35:A 0.0832
*END

*D_NET net_55 1.8158
*CONN
*I TAUGATE_34:Z O
*I inst_245:A1 I
*I inst_451:A2 I
*CAP
1 TAUGATE_34:Z 0.3736
2 net_55:1 0.3644
3 inst_245:A1 0.0829
4 net_55:2 0.1165
5 net_55:3 0.0986
6 net_55:4 0.2243
7 net_55:5 0.1286
8 inst_451:A2 0.4269
*RES
2 TAUGATE_34:Z net_55:1 0.1977
3 net_55:1 inst_245:A1 0.4694
4 net_55:1 net_55:2 0.2482
5 net_55:2 net_55:3 0.2195
6 net_55:3 net_55:4 0.1533
7 net_55:4 net_55:5 0.4091
8 net_55:5 inst_451:A2 0.2613
*END

*D_NET net_46 2.7283
*CONN
*I TAUGATE_47:Z O
*I inst_246:A1 I
*I inst_238:A1 I
*CAP
1 TAUGATE_47:Z 0.1869
2 net_46:1 0.3047
3 net_46:2 0.1200
4 net_46:3 0.4969
5 net_46:4 0.1210
6 net_46:5 0.1733
7 inst_238:A1 0.1014
8 net_46:6 0.1317
9 net_46:7 0.3617
10 net_46:8 0.0856
11 net_46:9 0.3629
12 inst_246:A1 0.2821
*RES
2 TAUGATE_47:Z net_46:1 0.0283
3 net_46:1 net_46:2 0.2763
4 net_46:2 net_46:3 0.2945
5 net_46:3 net_46:4 0.3177
6 net_46:4 net_46:5 0.2101
7 net_46:5 inst_238:A1 0.3390
8 net_46:2 net_46:6 0.3900
9 net_46:6 net_46:7 0.0557
10 net_46:7 net_46:8 0.1253
11 net_46:8 net_46:9 0.2716
12 net_46:9 inst_246:A1 0.3735
*END

*D_NET net_480 3.1644
*CONN
*I TAUGATE_59:Z O
*I inst_650:B I
*I inst_349:A3 I
*CAP
1 TAUGATE_59:Z 0.3323
2 net_480:1 0.0362
3 net_480:2 0.4966
4 net_480:3 0.4101
5 inst_650:B 0.2702
6 net_480:4 0.3090
7 net_480:5 0.3972
8 net_480:6 0.4228
9 net_480:7 0.2443
10 inst_349:A3 0.2458
*RES
2 TAUGATE_59:Z net_480:1 0.2135
3 net_480:1 net_480:2 0.0419
4 net_480:2 net_480:3 0.2773
5 net_480:3 inst_650:B 0.0903
6 net_480:1 net_480:4 0.3734
7 net_480:4 net_480:5 0.1567
8 net_480:5 net_480:6 0.1247
9 net_480:6 net_480:7 0.2439
10 net_480:7 inst_349:A3 0.2588
*END

*D_NET TAUNET_46 0.9945
*CONN
*I inst_35:Z O
*I TAUGATE_46:A I
*CAP
1 inst_35:Z 0.3528
2 TAUNET_46:1 0.4436
3 TAUGATE_46:A 0.1981
*RES
2 inst_35:Z TAUNET_46:1 0.3275
3 TAUNET_46:1 TAUGATE_46:A 0.0169
*END

*D_NET TAUNET_24 1.2825
*CONN
*I inst_238:ZN O
*I TAUGATE_24:A I
*CAP
1 inst_238:ZN 0.4684
2 TAUNET_24:1 0.0579
3 TAUNET_24:2 0.0423
4 TAUNET_24:3 0.2861
5 TAUGATE_24:A 0.4278
*RES
2 inst_238:ZN TAUNET_24:1 0.3875
3 TAUNET_24:1 TAUNET_24:2 0.4796
4 TAUNET_24:2 TAUNET_24:3 0.3740
5 TAUNET_24:3 TAUGATE_24:A 0.1554
*END

*D_NET n46 3.4590
*CONN
*I TAUGATE_20:Z O
*I inst_476:A1 I
*I inst_477:A1 I
*CAP
1 TAUGATE_20:Z 0.4380
2 n46:1 0.4990
3 n46:2 0.2134
4 n46:3 0.1115
5 n46:4 0.4947
6 n46:5 0.3666
7 inst_476:A1 0.2854
8 n46:6 0.1531
9 n46:7 0.3886
10 n46:8 0.2618
11 inst_477:A1 0.2468
*RES
2 TAUGATE_20:Z n46:1 0.4464
3 n46:1 n46:2 0.2438
4 n46:2 n46:3 0.2969
5 n46:3 n46:4 0.3091
6 n46:4 n46:5 0.5006
7 n46:5 inst_476:A1 0.2264
8 n46:5 n46:6 0.4002
9 n46:6 n46:7 0.3652
10 n46:7 n46:8 0.1857
11 n46:8 inst_477:A1 0.0562
*END

*D_NET net_25 1.1318
*CONN
*I TAUGATE_15:Z O
*I inst_187:A3 I
*CAP
1 TAUGATE_15:Z 0.4386
2 net_25:1 0.0199
3 net_25:2 0.4145
4 net_25:3 0.1459
5 inst_187:A3 0.1130
*RES
2 TAUGATE_15:Z net_25:1 0.1026
3 net_25:1 net_25:2 0.1939
4 net_25:2 net_25:3 0.1095
5 net_25:3 inst_187:A3 0.0212
*END

*D_NET net_545 1.6478
*CONN
*I TAUGATE_28:Z O
*I inst_108:A I
*CAP
1 TAUGATE_28:Z 0.2190
2 net_545:1 0.1138
3 net_545:2 0.4033
4 net_545:3 0.3663
5 net_545:4 0.2540
6 net_545:5 0.0526
7 inst_108:A 0.2388
*RES
2 TAUGATE_28:Z net_545:1 0.1787
3 net_545:1 net_545:2 0.3603
4 net_545:2 net_545:3 0.0603
5 net_545:3 net_545:4 0.0863
6 net_545:4 net_545:5 0.3102
7 net_545:5 inst_108:A 0.1239
*END

*D_NET TAUNET_16 1.6234
*CONN
*I inst_40:Z O
*I TAUGATE_16:A I
*CAP
1 inst_40:Z 0.0055
2 TAUNET_16:1 0.2412
3 TAUNET_16:2 0.3995
4 TAUNET_16:3 0.4441
5 TAUNET_16:4 0.4218
6 TAUNET_16:5 0.0848
7 TAUGATE_16:A 0.0266
*RES
2 inst_40:Z TAUNET_16:1 0.0274
3 TAUNET_16:1 TAUNET_16:2 0.4218
4 TAUNET_16:2 TAUNET_16:3 0.2061
5 TAUNET_16:3 TAUNET_16:4 0.2110
6 TAUNET_16:4 TAUNET_16:5 0.4583
7 TAUNET_16:5 TAUGATE_16:A 0.3985
*END

*D_NET TAUNET_31 1.9898
*CONN
*I inst_110:ZN O
*I TAUGATE_31:A I
*CAP
1 inst_110:ZN 0.0725
2 TAUNET_31:1 0.3124
3 TAUNET_31:2 0.3685
4 TAUNET_31:3 0.4317
5 TAUNET_31:4 0.1801
6 TAUNET_31:5 0.2826
7 TAUGATE_31:A 0.3420
*RES
2 inst_110:ZN TAUNET_31:1 0.0965
3 TAUNET_31:1 TAUNET_31:2 0.2555
4 TAUNET_31:2 TAUNET_31:3 0.1304
5 TAUNET_31:3 TAUNET_31:4 0.3675
6 TAUNET_31:4 TAUNET_31:5 0.4634
7 TAUNET_31:5 TAUGATE_31:A 0.2869
*END

*D_NET net_265 0.5511
*CONN
*I TAUGATE_40:Z O
*I inst_302:A2 I
*CAP
1 TAUGATE_40:Z 0.1182
2 net_265:1 0.0608
3 inst_302:A2 0.3721
*RES
2 TAUGATE_40:Z net_265:1 0.4648
3 net_265:1 inst_302:A2 0.2376
*END

*D_NET TAUNET_25 0.8353
*CONN
*P n191 I
*I TAUGATE_25:A I
*CAP
1 n191 0.3081
2 TAUNET_25:1 0.0264
3 TAUNET_25:2 0.2502
4 TAUGATE_25:A 0.2506
*RES
2 n191 TAUNET_25:1 0.4486
3 TAUNET_25:1 TAUNET_25:2 0.0641
4 TAUNET_25:2 TAUGATE_25:A 0.0138
*END

*D_NET net_544 0.7959
*CONN
*I TAUGATE_19:Z O
*I inst_101:A I
*CAP
1 TAUGATE_19:Z 0.0204
2 net_544:1 0.1001
3 net_544:2 0.2747
4 net_544:3 0.1704
5 inst_101:A 0.2303
*RES
2 TAUGATE_19:Z net_544:1 0.0121
3 net_544:1 net_544:2 0.0620
4 net_544:2 net_544:3 0.0267
5 net_544:3 inst_101:A 0.1278
*END

*D_NET TAUNET_27 1.5058
*CONN
*I inst_417:ZN O
*I TAUGATE_27:A I
*CAP
1 inst_417:ZN 0.3621
2 TAUNET_27:1 0.3490
3 TAUNET_27:2 0.4751
4 TAUGATE_27:A 0.3195
*RES
2 inst_417:ZN TAUNET_27:1 0.4748
3 TAUNET_27:1 TAUNET_27:2 0.2505
4 TAUNET_27:2 TAUGATE_27:A 0.2036
*END

*D_NET TAUNET_28 1.2849
*CONN
*I inst_91:ZN O
*I TAUGATE_28:A I
*CAP
1 inst_91:ZN 0.0185
2 TAUNET_28:1 0.2437
3 TAUNET_28:2 0.3641
4 TAUNET_28:3 0.1411
5 TAUNET_28:4 0.2452
6 TAUGATE_28:A 0.2723
*RES
2 inst_91:ZN TAUNET_28:1 0.2079
3 TAUNET_28:1 TAUNET_28:2 0.2449
4 TAUNET_28:2 TAUNET_28:3 0.0406
5 TAUNET_28:3 TAUNET_28:4 0.0917
6 TAUNET_28:4 TAUGATE_28:A 0.0078
*END

*D_NET TAUNET_57 0.3723
*CONN
*P n457 I
*I TAUGATE_57:A I
*CAP
1 n457 0.0264
2 TAUNET_57:1 0.1906
3 TAUGATE_57:A 0.1553
*RES
2 n457 TAUNET_57:1 0.0937
3 TAUNET_57:1 TAUGATE_57:A 0.2944
*END

*D_NET TAUNET_9 0.9828
*CONN
*I TAUGATE_35:Z O
*I TAUGATE_9:A I
*CAP
1 TAUGATE_35:Z 0.0209
2 TAUNET_9:1 0.1067
3 TAUNET_9:2 0.4881
4 TAUGATE_9:A 0.3672
*RES
2 TAUGATE_35:Z TAUNET_9:1 0.4629
3 TAUNET_9:1 TAUNET_9:2 0.1157
4 TAUNET_9:2 TAUGATE_9:A 0.1901
*END

*D_NET net_128 1.4760
*CONN
*I TAUGATE_52:Z O
*I inst_51:B I
*CAP
1 TAUGATE_52:Z 0.5008
2 net_128:1 0.3428
3 net_128:2 0.2325
4 net_128:3 0.2733
5 inst_51:B 0.1266
*RES
2 TAUGATE_52:Z net_128:1 0.3814
3 net_128:1 net_128:2 0.1363
4 net_128:2 net_128:3 0.3277
5 net_128:3 inst_51:B 0.3144
*END

*D_NET n323 1.3785
*CONN
*I TAUGATE_49:Z O
*I inst_591:B I
*CAP
1 TAUGATE_49:Z 0.3676
2 n323:1 0.4423
3 n323:2 0.1159
4 inst_591:B 0.4527
*RES
2 TAUGATE_49:Z n323:1 0.1465
3 n323:1 n323:2 0.1463
4 n323:2 inst_591:B 0.4621
*END

*D_NET TAUNET_37 0.8463
*CONN
*I inst_520:ZN O
*I TAUGATE_37:A I
*CAP
1 inst_520:ZN 0.0227
2 TAUNET_37:1 0.4114
3 TAUNET_37:2 0.0715
4 TAUNET_37:3 0.1546
5 TAUGATE_37:A 0.1861
*RES
2 inst_520:ZN TAUNET_37:1 0.4367
3 TAUNET_37:1 TAUNET_37:2 0.3452
4 TAUNET_37:2 TAUNET_37:3 0.0313
5 TAUNET_37:3 TAUGATE_37:A 0.1217
*END

*D_NET TAUNET_32 0.7321
*CONN
*I inst_449:ZN O
*I TAUGATE_32:A I
*CAP
1 inst_449:ZN 0.1222
2 TAUNET_32:1 0.1692
3 TAUGATE_32:A 0.4407
*RES
2 inst_449:ZN TAUNET_32:1 0.4978
3 TAUNET_32:1 TAUGATE_32:A 0.2563
*END

*D_NET TAUNET_38 1.2175
*CONN
*I inst_486:ZN O
*I TAUGATE_38:A I
*CAP
1 inst_486:ZN 0.2603
2 TAUNET_38:1 0.3072
3 TAUNET_38:2 0.2768
4 TAUNET_38:3 0.1679
5 TAUGATE_38:A 0.2053
*RES
2 inst_486:ZN TAUNET_38:1 0.2140
3 TAUNET_38:1 TAUNET_38:2 0.3306
4 TAUNET_38:2 TAUNET_38:3 0.1569
5 TAUNET_38:3 TAUGATE_38:A 0.2580
*END

*D_NET net_138 2.4397
*CONN
*I TAUGATE_41:Z O
*I inst_418:A1 I
*CAP
1 TAUGATE_41:Z 0.4796
2 net_138:1 0.4946
3 net_138:2 0.4608
4 net_138:3 0.4692
5 net_138:4 0.4766
6 inst_418:A1 0.0589
*RES
2 TAUGATE_41:Z net_138:1 0.0962
3 net_138:1 net_138:2 0.2415
4 net_138:2 net_138:3 0.1750
5 net_138:3 net_138:4 0.4103
6 net_138:4 inst_418:A1 0.0845
*END

*D_NET n807 0.7397
*CONN
*I TAUGATE_27:Z O
*P n807 O
*CAP
1 TAUGATE_27:Z 0.1436
2 n807:1 0.4748
3 n807:2 0.0806
4 n807 0.0407
*RES
2 TAUGATE_27:Z n807:1 0.2069
3 n807:1 n807:2 0.0491
4 n807:2 n807 0.4137
*END

*D_NET net_32 1.2657
*CONN
*I TAUGATE_26:Z O
*I inst_380:A1 I
*CAP
1 TAUGATE_26:Z 0.2987
2 net_32:1 0.1831
3 net_32:2 0.4110
4 net_32:3 0.0191
5 inst_380:A1 0.3538
*RES
2 TAUGATE_26:Z net_32:1 0.4300
3 net_32:1 net_32:2 0.3629
4 net_32:2 net_32:3 0.0787
5 net_32:3 inst_380:A1 0.2007
*END

*D_NET TAUNET_40 2.1629
*CONN
*I inst_276:ZN O
*I TAUGATE_40:A I
*CAP
1 inst_276:ZN 0.4025
2 TAUNET_40:1 0.3538
3 TAUNET_40:2 0.4649
4 TAUNET_40:3 0.0482
5 TAUNET_40:4 0.1062
6 TAUNET_40:5 0.2963
7 TAUGATE_40:A 0.4911
*RES
2 inst_276:ZN TAUNET_40:1 0.2002
3 TAUNET_40:1 TAUNET_40:2 0.2573
4 TAUNET_40:2 TAUNET_40:3 0.3761
5 TAUNET_40:3 TAUNET_40:4 0.0616
6 TAUNET_40:4 TAUNET_40:5 0.4298
7 TAUNET_40:5 TAUGATE_40:A 0.2857
*END

*D_NET TAUNET_20 0.6543
*CONN
*P n46 I
*I TAUGATE_20:A I
*CAP
1 n46 0.0470
2 TAUNET_20:1 0.1738
3 TAUGATE_20:A 0.4336
*RES
2 n46 TAUNET_20:1 0.4556
3 TAUNET_20:1 TAUGATE_20:A 0.1284
*END

*D_NET TAUNET_14 1.6488
*CONN
*I inst_87:ZN O
*I TAUGATE_14:A I
*CAP
1 inst_87:ZN 0.1731
2 TAUNET_14:1 0.3095
3 TAUNET_14:2 0.4895
4 TAUNET_14:3 0.4033
5 TAUGATE_14:A 0.2734
*RES
2 inst_87:ZN TAUNET_14:1 0.3461
3 TAUNET_14:1 TAUNET_14:2 0.3729
4 TAUNET_14:2 TAUNET_14:3 0.0418
5 TAUNET_14:3 TAUGATE_14:A 0.3671
*END

*D_NET net_652 1.1766
*CONN
*I TAUGATE_50:Z O
*I inst_394:A3 I
*CAP
1 TAUGATE_50:Z 0.1458
2 net_652:1 0.0683
3 net_652:2 0.2135
4 net_652:3 0.4484
5 net_652:4 0.1379
6 net_652:5 0.1139
7 inst_394:A3 0.0489
*RES
2 TAUGATE_50:Z net_652:1 0.0861
3 net_652:1 net_652:2 0.1477
4 net_652:2 net_652:3 0.4806
5 net_652:3 net_652:4 0.3473
6 net_652:4 net_652:5 0.1114
7 net_652:5 inst_394:A3 0.0198
*END

*D_NET net_161 1.3546
*CONN
*I TAUGATE_43:Z O
*I inst_415:A1 I
*CAP
1 TAUGATE_43:Z 0.1100
2 net_161:1 0.3290
3 net_161:2 0.1592
4 net_161:3 0.4236
5 inst_415:A1 0.3328
*RES
2 TAUGATE_43:Z net_161:1 0.1906
3 net_161:1 net_161:2 0.5003
4 net_161:2 net_161:3 0.4347
5 net_161:3 inst_415:A1 0.3044
*END

*D_NET n11 2.5714
*CONN
*I TAUGATE_58:Z O
*I inst_368:A2 I
*I inst_364:A2 I
*CAP
1 TAUGATE_58:Z 0.0096
2 n11:1 0.2377
3 n11:2 0.2571
4 n11:3 0.3610
5 n11:4 0.0042
6 n11:5 0.2690
7 inst_368:A2 0.3841
8 n11:6 0.0621
9 n11:7 0.2122
10 n11:8 0.2034
11 n11:9 0.1253
12 n11:10 0.2112
13 inst_364:A2 0.2343
*RES
2 TAUGATE_58:Z n11:1 0.3400
3 n11:1 n11:2 0.2352
4 n11:2 n11:3 0.3112
5 n11:3 n11:4 0.1345
6 n11:4 n11:5 0.4134
7 n11:5 inst_368:A2 0.0741
8 n11:5 n11:6 0.1106
9 n11:6 n11:7 0.0283
10 n11:7 n11:8 0.2644
11 n11:8 n11:9 0.3395
12 n11:9 n11:10 0.4160
13 n11:10 inst_364:A2 0.1311
*END

*D_NET TAUNET_49 0.5652
*CONN
*P n323 I
*I TAUGATE_49:A I
*CAP
1 n323 0.0535
2 TAUNET_49:1 0.2939
3 TAUGATE_49:A 0.2177
*RES
2 n323 TAUNET_49:1 0.0520
3 TAUNET_49:1 TAUGATE_49:A 0.1787
*END

*D_NET net_83 1.2588
*CONN
*I TAUGATE_39:Z O
*I inst_57:A I
*CAP
1 TAUGATE_39:Z 0.2308
2 net_83:1 0.4154
3 net_83:2 0.4205
4 inst_57:A 0.1921
*RES
2 TAUGATE_39:Z net_83:1 0.3303
3 net_83:1 net_83:2 0.0500
4 net_83:2 inst_57:A 0.3450
*END

*D_NET net_142 1.3816
*CONN
*I TAUGATE_32:Z O
*I inst_376:A3 I
*CAP
1 TAUGATE_32:Z 0.2397
2 net_142:1 0.0450
3 net_142:2 0.3586
4 net_142:3 0.1804
5 net_142:4 0.2132
6 inst_376:A3 0.3448
*RES
2 TAUGATE_32:Z net_142:1 0.2539
3 net_142:1 net_142:2 0.0169
4 net_142:2 net_142:3 0.2910
5 net_142:3 net_142:4 0.3418
6 net_142:4 inst_376:A3 0.0277
*END

*D_NET TAUNET_50 0.7138
*CONN
*I inst_165:ZN O
*I TAUGATE_50:A I
*CAP
1 inst_165:ZN 0.0700
2 TAUNET_50:1 0.4916
3 TAUNET_50:2 0.0258
4 TAUNET_50:3 0.0722
5 TAUNET_50:4 0.0268
6 TAUGATE_50:A 0.0274
*RES
2 inst_165:ZN TAUNET_50:1 0.0955
3 TAUNET_50:1 TAUNET_50:2 0.0758
4 TAUNET_50:2 TAUNET_50:3 0.0730
5 TAUNET_50:3 TAUNET_50:4 0.2996
6 TAUNET_50:4 TAUGATE_50:A 0.1500
*END

*D_NET net_609 1.1459
*CONN
*I TAUGATE_31:Z O
*I inst_120:B I
*CAP
1 TAUGATE_31:Z 0.0605
2 net_609:1 0.4347
3 net_609:2 0.2976
4 inst_120:B 0.3531
*RES
2 TAUGATE_31:Z net_609:1 0.0316
3 net_609:1 net_609:2 0.1823
4 net_609:2 inst_120:B 0.0755
*END

*D_NET TAUNET_23 1.1637
*CONN
*I inst_421:ZN O
*I TAUGATE_23:A I
*CAP
1 inst_421:ZN 0.3515
2 TAUNET_23:1 0.4269
3 TAUNET_23:2 0.0493
4 TAUNET_23:3 0.0341
5 TAUGATE_23:A 0.3020
*RES
2 inst_421:ZN TAUNET_23:1 0.3389
3 TAUNET_23:1 TAUNET_23:2 0.4000
4 TAUNET_23:2 TAUNET_23:3 0.0188
5 TAUNET_23:3 TAUGATE_23:A 0.4709
*END

*D_NET net_442 0.8262
*CONN
*I TAUGATE_17:Z O
*I inst_559:A1 I
*CAP
1 TAUGATE_17:Z 0.0122
2 net_442:1 0.0936
3 net_442:2 0.3051
4 net_442:3 0.1197
5 inst_559:A1 0.2956
*RES
2 TAUGATE_17:Z net_442:1 0.2210
3 net_442:1 net_442:2 0.0970
4 net_442:2 net_442:3 0.2798
5 net_442:3 inst_559:A1 0.3150
*END

*D_NET TAUNET_39 1.2664
*CONN
*I inst_4:Z O
*I TAUGATE_39:A I
*CAP
1 inst_4:Z 0.2108
2 TAUNET_39:1 0.0161
3 TAUNET_39:2 0.2047
4 TAUNET_39:3 0.3729
5 TAUNET_39:4 0.0610
6 TAUGATE_39:A 0.4010
*RES
2 inst_4:Z TAUNET_39:1 0.2910
3 TAUNET_39:1 TAUNET_39:2 0.3768
4 TAUNET_39:2 TAUNET_39:3 0.3083
5 TAUNET_39:3 TAUNET_39:4 0.1250
6 TAUNET_39:4 TAUGATE_39:A 0.3526
*END

*D_NET net_535 1.6292
*CONN
*I TAUGATE_14:Z O
*I inst_670:B I
*CAP
1 TAUGATE_14:Z 0.3144
2 net_535:1 0.0820
3 net_535:2 0.2174
4 net_535:3 0.3638
5 net_535:4 0.4097
6 inst_670:B 0.2418
*RES
2 TAUGATE_14:Z net_535:1 0.4080
3 net_535:1 net_535:2 0.3118
4 net_535:2 net_535:3 0.4981
5 net_535:3 net_535:4 0.3134
6 net_535:4 inst_670:B 0.4059
*END

*D_NET TAUNET_51 0.9494
*CONN
*I inst_690:Z O
*I TAUGATE_51:A I
*CAP
1 inst_690:Z 0.0910
2 TAUNET_51:1 0.3093
3 TAUNET_51:2 0.3342
4 TAUGATE_51:A 0.2150
*RES
2 inst_690:Z TAUNET_51:1 0.0109
3 TAUNET_51:1 TAUNET_51:2 0.1830
4 TAUNET_51:2 TAUGATE_51:A 0.2298
*END

*D_NET net_15 0.1587
*CONN
*I TAUGATE_12:Z O
*I inst_197:A3 I
*CAP
1 TAUGATE_12:Z 0.0044
2 net_15:1 0.0476
3 net_15:2 0.0521
4 inst_197:A3 0.0546
*RES
2 TAUGATE_12:Z net_15:1 0.0043
3 net_15:1 net_15:2 0.2737
4 net_15:2 inst_197:A3 0.4724
*END

*D_NET TAUNET_19 1.0994
*CONN
*I inst_90:ZN O
*I TAUGATE_19:A I
*CAP
1 inst_90:ZN 0.2426
2 TAUNET_19:1 0.2784
3 TAUNET_19:2 0.2008
4 TAUGATE_19:A 0.3776
*RES
2 inst_90:ZN TAUNET_19:1 0.2937
3 TAUNET_19:1 TAUNET_19:2 0.0093
4 TAUNET_19:2 TAUGATE_19:A 0.2822
*END

*D_NET TAUNET_34 1.0927
*CONN
*I inst_750:ZN O
*I TAUGATE_34:A I
*CAP
1 inst_750:ZN 0.0309
2 TAUNET_34:1 0.3809
3 TAUNET_34:2 0.3567
4 TAUGATE_34:A 0.3242
*RES
2 inst_750:ZN TAUNET_34:1 0.2336
3 TAUNET_34:1 TAUNET_34:2 0.3863
4 TAUNET_34:2 TAUGATE_34:A 0.2365
*END

*D_NET TAUNET_54 1.1858
*CONN
*I inst_189:ZN O
*I TAUGATE_54:A I
*CAP
1 inst_189:ZN 0.3572
2 TAUNET_54:1 0.2185
3 TAUNET_54:2 0.2266
4 TAUNET_54:3 0.2538
5 TAUGATE_54:A 0.1297
*RES
2 inst_189:ZN TAUNET_54:1 0.4791
3 TAUNET_54:1 TAUNET_54:2 0.2417
4 TAUNET_54:2 TAUNET_54:3 0.2444
5 TAUNET_54:3 TAUGATE_54:A 0.4262
*END

*D_NET TAUNET_44 1.0967
*CONN
*I inst_694:Z O
*I TAUGATE_44:A I
*CAP
1 inst_694:Z 0.3015
2 TAUNET_44:1 0.3035
3 TAUNET_44:2 0.4053
4 TAUGATE_44:A 0.0863
*RES
2 inst_694:Z TAUNET_44:1 0.2362
3 TAUNET_44:1 TAUNET_44:2 0.1365
4 TAUNET_44:2 TAUGATE_44:A 0.0277
*END

*D_NET net_311 0.8486
*CONN
*I TAUGATE_37:Z O
*I inst_341:A1 I
*CAP
1 TAUGATE_37:Z 0.2912
2 net_311:1 0.3711
3 net_311:2 0.0512
4 inst_341:A1 0.1351
*RES
2 TAUGATE_37:Z net_311:1 0.0984
3 net_311:1 net_311:2 0.0368
4 net_311:2 inst_341:A1 0.4376
*END

*D_NET TAUNET_43 1.3959
*CONN
*I inst_370:ZN O
*I TAUGATE_43:A I
*CAP
1 inst_370:ZN 0.1283
2 TAUNET_43:1 0.3234
3 TAUNET_43:2 0.4610
4 TAUGATE_43:A 0.4832
*RES
2 inst_370:ZN TAUNET_43:1 0.2776
3 TAUNET_43:1 TAUNET_43:2 0.3781
4 TAUNET_43:2 TAUGATE_43:A 0.3766
*END

*D_NET n847 1.4006
*CONN
*I TAUGATE_23:Z O
*P n847 O
*CAP
1 TAUGATE_23:Z 0.3877
2 n847:1 0.3738
3 n847:2 0.4556
4 n847 0.1835
*RES
2 TAUGATE_23:Z n847:1 0.0020
3 n847:1 n847:2 0.2614
4 n847:2 n847 0.3010
*END

*D_NET TAUNET_56 1.0435
*CONN
*I inst_204:ZN O
*I TAUGATE_56:A I
*CAP
1 inst_204:ZN 0.4372
2 TAUNET_56:1 0.1153
3 TAUNET_56:2 0.3810
4 TAUGATE_56:A 0.1100
*RES
2 inst_204:ZN TAUNET_56:1 0.1662
3 TAUNET_56:1 TAUNET_56:2 0.3178
4 TAUNET_56:2 TAUGATE_56:A 0.2541
*END

*D_NET net_670 1.5558
*CONN
*I TAUGATE_55:Z O
*I inst_574:A2 I
*CAP
1 TAUGATE_55:Z 0.4625
2 net_670:1 0.0981
3 net_670:2 0.3461
4 net_670:3 0.2382
5 inst_574:A2 0.4109
*RES
2 TAUGATE_55:Z net_670:1 0.0945
3 net_670:1 net_670:2 0.2326
4 net_670:2 net_670:3 0.0121
5 net_670:3 inst_574:A2 0.2674
*END

*D_NET TAUNET_55 1.0180
*CONN
*I inst_698:Z O
*I TAUGATE_55:A I
*CAP
1 inst_698:Z 0.0414
2 TAUNET_55:1 0.1970
3 TAUNET_55:2 0.0138
4 TAUNET_55:3 0.4527
5 TAUGATE_55:A 0.3131
*RES
2 inst_698:Z TAUNET_55:1 0.4392
3 TAUNET_55:1 TAUNET_55:2 0.4048
4 TAUNET_55:2 TAUNET_55:3 0.0368
5 TAUNET_55:3 TAUGATE_55:A 0.3283
*END

*D_NET TAUNET_11 1.5830
*CONN
*I inst_699:Z O
*I TAUGATE_11:A I
*CAP
1 inst_699:Z 0.4199
2 TAUNET_11:1 0.3306
3 TAUNET_11:2 0.3042
4 TAUNET_11:3 0.1317
5 TAUNET_11:4 0.1481
6 TAUGATE_11:A 0.2485
*RES
2 inst_699:Z TAUNET_11:1 0.2201
3 TAUNET_11:1 TAUNET_11:2 0.2966
4 TAUNET_11:2 TAUNET_11:3 0.3013
5 TAUNET_11:3 TAUNET_11:4 0.0758
6 TAUNET_11:4 TAUGATE_11:A 0.0262
*END

*D_NET TAUNET_33 0.4260
*CONN
*I inst_378:ZN O
*I TAUGATE_33:A I
*CAP
1 inst_378:ZN 0.0656
2 TAUNET_33:1 0.0047
3 TAUNET_33:2 0.1418
4 TAUGATE_33:A 0.2138
*RES
2 inst_378:ZN TAUNET_33:1 0.3805
3 TAUNET_33:1 TAUNET_33:2 0.2523
4 TAUNET_33:2 TAUGATE_33:A 0.0497
*END

*D_NET TAUNET_22 1.3598
*CONN
*P n161 I
*I TAUGATE_22:A I
*CAP
1 n161 0.3913
2 TAUNET_22:1 0.3201
3 TAUNET_22:2 0.0320
4 TAUNET_22:3 0.2786
5 TAUGATE_22:A 0.3378
*RES
2 n161 TAUNET_22:1 0.4364
3 TAUNET_22:1 TAUNET_22:2 0.2454
4 TAUNET_22:2 TAUNET_22:3 0.4527
5 TAUNET_22:3 TAUGATE_22:A 0.2663
*END

*D_NET TAUNET_41 1.5865
*CONN
*I inst_365:ZN O
*I TAUGATE_41:A I
*CAP
1 inst_365:ZN 0.1740
2 TAUNET_41:1 0.3351
3 TAUNET_41:2 0.4105
4 TAUNET_41:3 0.3004
5 TAUGATE_41:A 0.3665
*RES
2 inst_365:ZN TAUNET_41:1 0.1341
3 TAUNET_41:1 TAUNET_41:2 0.0859
4 TAUNET_41:2 TAUNET_41:3 0.1706
5 TAUNET_41:3 TAUGATE_41:A 0.3812
*END

*D_NET TAUNET_30 0.4838
*CONN
*I inst_201:ZN O
*I TAUGATE_30:A I
*CAP
1 inst_201:ZN 0.1227
2 TAUNET_30:1 0.0059
3 TAUGATE_30:A 0.3552
*RES
2 inst_201:ZN TAUNET_30:1 0.3839
3 TAUNET_30:1 TAUGATE_30:A 0.1840
*END

*D_NET TAUNET_58 2.5126
*CONN
*P n11 I
*I TAUGATE_58:A I
*CAP
1 n11 0.3573
2 TAUNET_58:1 0.3575
3 TAUNET_58:2 0.1715
4 TAUNET_58:3 0.3050
5 TAUNET_58:4 0.3594
6 TAUNET_58:5 0.4902
7 TAUGATE_58:A 0.4716
*RES
2 n11 TAUNET_58:1 0.2112
3 TAUNET_58:1 TAUNET_58:2 0.1762
4 TAUNET_58:2 TAUNET_58:3 0.1166
5 TAUNET_58:3 TAUNET_58:4 0.1660
6 TAUNET_58:4 TAUNET_58:5 0.2177
7 TAUNET_58:5 TAUGATE_58:A 0.2908
*END

*D_NET n707 1.2533
*CONN
*I TAUGATE_45:Z O
*P n707 O
*CAP
1 TAUGATE_45:Z 0.3308
2 n707:1 0.4669
3 n707:2 0.1932
4 n707:3 0.0675
5 n707:4 0.0053
6 n707:5 0.1459
7 n707 0.0437
*RES
2 TAUGATE_45:Z n707:1 0.4598
3 n707:1 n707:2 0.3838
4 n707:2 n707:3 0.2033
5 n707:3 n707:4 0.3263
6 n707:4 n707:5 0.4574
7 n707:5 n707 0.4683
*END

*D_NET net_245 1.4761
*CONN
*I TAUGATE_18:Z O
*I inst_296:A2 I
*CAP
1 TAUGATE_18:Z 0.4873
2 net_245:1 0.4800
3 net_245:2 0.4518
4 inst_296:A2 0.0570
*RES
2 TAUGATE_18:Z net_245:1 0.4909
3 net_245:1 net_245:2 0.0572
4 net_245:2 inst_296:A2 0.5008
*END

*D_NET net_662 7.1818
*CONN
*I TAUGATE_21:Z O
*I inst_892:A2 I
*I inst_339:A2 I
*I inst_213:A2 I
*I inst_871:A2 I
*I inst_567:A2 I
*CAP
1 TAUGATE_21:Z 0.2457
2 net_662:1 0.2594
3 net_662:2 0.3565
4 net_662:3 0.4074
5 net_662:4 0.4309
6 net_662:5 0.4474
7 inst_339:A2 0.2931
8 net_662:6 0.4663
9 net_662:7 0.2866
10 net_662:8 0.1873
11 net_662:9 0.1599
12 net_662:10 0.3589
13 inst_892:A2 0.4697
14 net_662:11 0.4162
15 net_662:12 0.1285
16 net_662:13 0.0491
17 inst_213:A2 0.3511
18 net_662:14 0.2365
19 inst_871:A2 0.0021
20 net_662:15 0.3187
21 net_662:16 0.4272
22 net_662:17 0.0224
23 net_662:18 0.4026
24 net_662:19 0.2784
25 inst_567:A2 0.1803
*RES
2 TAUGATE_21:Z net_662:1 0.2848
3 net_662:1 net_662:2 0.2246
4 net_662:2 net_662:3 0.3320
5 net_662:3 net_662:4 0.3870
6 net_662:4 net_662:5 0.3663
7 net_662:5 inst_339:A2 0.1512
8 net_662:1 net_662:6 0.4844
9 net_662:6 net_662:7 0.0401
10 net_662:7 net_662:8 0.2861
11 net_662:8 net_662:9 0.1883
12 net_662:9 net_662:10 0.3075
13 net_662:10 inst_892:A2 0.0604
14 net_662:9 net_662:11 0.2111
15 net_662:11 net_662:12 0.3010
16 net_662:12 net_662:13 0.1515
17 net_662:13 inst_213:A2 0.0492
18 net_662:8 net_662:14 0.2080
19 net_662:14 inst_871:A2 0.3529
20 net_662:11 net_662:15 0.0882
21 net_662:15 net_662:16 0.2924
22 net_662:16 net_662:17 0.4780
23 net_662:17 net_662:18 0.3510
24 net_662:18 net_662:19 0.1182
25 net_662:19 inst_567:A2 0.2614
*END

*D_NET TAUNET_52 2.0123
*CONN
*I inst_630:Z O
*I TAUGATE_52:A I
*CAP
1 inst_630:Z 0.2582
2 TAUNET_52:1 0.0762
3 TAUNET_52:2 0.1986
4 TAUNET_52:3 0.3922
5 TAUNET_52:4 0.3950
6 TAUNET_52:5 0.2666
7 TAUGATE_52:A 0.4255
*RES
2 inst_630:Z TAUNET_52:1 0.4671
3 TAUNET_52:1 TAUNET_52:2 0.2972
4 TAUNET_52:2 TAUNET_52:3 0.3936
5 TAUNET_52:3 TAUNET_52:4 0.4880
6 TAUNET_52:4 TAUNET_52:5 0.4169
7 TAUNET_52:5 TAUGATE_52:A 0.3167
*END

*D_NET net_201 1.2435
*CONN
*I TAUGATE_38:Z O
*I inst_417:A2 I
*CAP
1 TAUGATE_38:Z 0.1073
2 net_201:1 0.1300
3 net_201:2 0.3795
4 net_201:3 0.2362
5 net_201:4 0.1908
6 inst_417:A2 0.1996
*RES
2 TAUGATE_38:Z net_201:1 0.3123
3 net_201:1 net_201:2 0.1251
4 net_201:2 net_201:3 0.0048
5 net_201:3 net_201:4 0.3126
6 net_201:4 inst_417:A2 0.0195
*END

*D_NET TAUNET_59 1.8169
*CONN
*I inst_26:Z O
*I TAUGATE_59:A I
*CAP
1 inst_26:Z 0.3700
2 TAUNET_59:1 0.3466
3 TAUNET_59:2 0.4948
4 TAUNET_59:3 0.4038
5 TAUNET_59:4 0.1954
6 TAUGATE_59:A 0.0063
*RES
2 inst_26:Z TAUNET_59:1 0.4904
3 TAUNET_59:1 TAUNET_59:2 0.0915
4 TAUNET_59:2 TAUNET_59:3 0.4619
5 TAUNET_59:3 TAUNET_59:4 0.1065
6 TAUNET_59:4 TAUGATE_59:A 0.1990
*END

*D_NET net_647 0.5577
*CONN
*I TAUGATE_51:Z O
*I inst_571:A2 I
*CAP
1 TAUGATE_51:Z 0.0690
2 net_647:1 0.2934
3 net_647:2 0.0661
4 net_647:3 0.0281
5 inst_571:A2 0.1011
*RES
2 TAUGATE_51:Z net_647:1 0.2539
3 net_647:1 net_647:2 0.0765
4 net_647:2 net_647:3 0.1980
5 net_647:3 inst_571:A2 0.3226
*END

*D_NET net_298 2.4686
*CONN
*I TAUGATE_36:Z O
*I inst_70:A I
*CAP
1 TAUGATE_36:Z 0.2766
2 net_298:1 0.4267
3 net_298:2 0.4596
4 net_298:3 0.3295
5 net_298:4 0.4724
6 net_298:5 0.4631
7 inst_70:A 0.0407
*RES
2 TAUGATE_36:Z net_298:1 0.4130
3 net_298:1 net_298:2 0.3462
4 net_298:2 net_298:3 0.0714
5 net_298:3 net_298:4 0.2110
6 net_298:4 net_298:5 0.2588
7 net_298:5 inst_70:A 0.0339
*END

*D_NET TAUNET_48 0.9948
*CONN
*I inst_233:ZN O
*I TAUGATE_48:A I
*CAP
1 inst_233:ZN 0.4874
2 TAUNET_48:1 0.2489
3 TAUGATE_48:A 0.2584
*RES
2 inst_233:ZN TAUNET_48:1 0.0346
3 TAUNET_48:1 TAUGATE_48:A 0.4333
*END

*D_NET n191 2.5632
*CONN
*I TAUGATE_25:Z O
*I inst_464:A1 I
*I inst_465:A1 I
*CAP
1 TAUGATE_25:Z 0.3416
2 n191:1 0.1540
3 n191:2 0.0325
4 n191:3 0.0924
5 n191:4 0.1850
6 n191:5 0.1516
7 inst_464:A1 0.2746
8 n191:6 0.0580
9 n191:7 0.3810
10 n191:8 0.2195
11 n191:9 0.2042
12 n191:10 0.2030
13 inst_465:A1 0.2656
*RES
2 TAUGATE_25:Z n191:1 0.4228
3 n191:1 n191:2 0.1417
4 n191:2 n191:3 0.3754
5 n191:3 n191:4 0.2016
6 n191:4 n191:5 0.0068
7 n191:5 inst_464:A1 0.2001
8 n191:5 n191:6 0.4413
9 n191:6 n191:7 0.1336
10 n191:7 n191:8 0.4042
11 n191:8 n191:9 0.0451
12 n191:9 n191:10 0.2391
13 n191:10 inst_465:A1 0.0321
*END

*D_NET TAUNET_42 1.0327
*CONN
*I inst_471:ZN O
*I TAUGATE_42:A I
*CAP
1 inst_471:ZN 0.0857
2 TAUNET_42:1 0.2245
3 TAUNET_42:2 0.4797
4 TAUNET_42:3 0.0551
5 TAUGATE_42:A 0.1877
*RES
2 inst_471:ZN TAUNET_42:1 0.0973
3 TAUNET_42:1 TAUNET_42:2 0.4235
4 TAUNET_42:2 TAUNET_42:3 0.1903
5 TAUNET_42:3 TAUGATE_42:A 0.2143
*END

*D_NET n875 1.8683
*CONN
*I TAUGATE_53:Z O
*P n875 O
*CAP
1 TAUGATE_53:Z 0.2421
2 n875:1 0.2497
3 n875:2 0.2766
4 n875:3 0.3086
5 n875:4 0.2353
6 n875:5 0.4838
7 n875 0.0722
*RES
2 TAUGATE_53:Z n875:1 0.3539
3 n875:1 n875:2 0.3446
4 n875:2 n875:3 0.0192
5 n875:3 n875:4 0.1341
6 n875:4 n875:5 0.4054
7 n875:5 n875 0.3681
*END

*D_NET TAUNET_18 0.7963
*CONN
*I inst_198:ZN O
*I TAUGATE_18:A I
*CAP
1 inst_198:ZN 0.1561
2 TAUNET_18:1 0.0224
3 TAUNET_18:2 0.3933
4 TAUGATE_18:A 0.2244
*RES
2 inst_198:ZN TAUNET_18:1 0.4154
3 TAUNET_18:1 TAUNET_18:2 0.1374
4 TAUNET_18:2 TAUGATE_18:A 0.1713
*END

*D_NET TAUNET_45 1.8689
*CONN
*I inst_895:ZN O
*I TAUGATE_45:A I
*CAP
1 inst_895:ZN 0.3119
2 TAUNET_45:1 0.3583
3 TAUNET_45:2 0.0251
4 TAUNET_45:3 0.0071
5 TAUNET_45:4 0.2242
6 TAUNET_45:5 0.4834
7 TAUGATE_45:A 0.4589
*RES
2 inst_895:ZN TAUNET_45:1 0.0098
3 TAUNET_45:1 TAUNET_45:2 0.3264
4 TAUNET_45:2 TAUNET_45:3 0.2846
5 TAUNET_45:3 TAUNET_45:4 0.4721
6 TAUNET_45:4 TAUNET_45:5 0.1185
7 TAUNET_45:5 TAUGATE_45:A 0.4585
*END

*D_NET TAUNET_21 1.8587
*CONN
*I inst_338:ZN O
*I TAUGATE_21:A I
*CAP
1 inst_338:ZN 0.0365
2 TAUNET_21:1 0.4335
3 TAUNET_21:2 0.3158
4 TAUNET_21:3 0.2513
5 TAUNET_21:4 0.4798
6 TAUNET_21:5 0.1640
7 TAUGATE_21:A 0.1778
*RES
2 inst_338:ZN TAUNET_21:1 0.3155
3 TAUNET_21:1 TAUNET_21:2 0.4909
4 TAUNET_21:2 TAUNET_21:3 0.2285
5 TAUNET_21:3 TAUNET_21:4 0.2293
6 TAUNET_21:4 TAUNET_21:5 0.4514
7 TAUNET_21:5 TAUGATE_21:A 0.1489
*END

*D_NET TAUNET_3 1.3305
*CONN
*I TAUGATE_11:Z O
*I TAUGATE_3:A I
*CAP
1 TAUGATE_11:Z 0.1815
2 TAUNET_3:1 0.3238
3 TAUNET_3:2 0.1536
4 TAUNET_3:3 0.2744
5 TAUGATE_3:A 0.3973
*RES
2 TAUGATE_11:Z TAUNET_3:1 0.0682
3 TAUNET_3:1 TAUNET_3:2 0.0813
4 TAUNET_3:2 TAUNET_3:3 0.2235
5 TAUNET_3:3 TAUGATE_3:A 0.0018
*END

*D_NET net_466 3.0340
*CONN
*I TAUGATE_10:Z O
*I inst_141:A1 I
*I inst_324:A2 I
*CAP
1 TAUGATE_10:Z 0.4580
2 net_466:1 0.4660
3 net_466:2 0.3296
4 net_466:3 0.2711
5 net_466:4 0.1177
6 net_466:5 0.1130
7 inst_324:A2 0.0719
8 net_466:6 0.4330
9 net_466:7 0.3792
10 inst_141:A1 0.3945
*RES