*SPEF "IEEE 1481-1998"
*DESIGN "changes"
*DATE "Tue Dec 02 20:39:05 2014"
*VENDOR "TAU 2015 Contest"
*PROGRAM "Benchmark Parasitic Generator"
*VERSION "0.0"
*DESIGN_FLOW "NETLIST_TYPE_VERILOG"
*DIVIDER /
*DELIMITER :
*BUS_DELIMITER [ ]
*T_UNIT 1 PS
*C_UNIT 1 FF
*R_UNIT 1 KOHM
*L_UNIT 1 UH

*D_NET TAUNET_9 1.7439
*CONN
*I inst_714:ZN O
*I TAUGATE_9:A I
*CAP
1 inst_714:ZN 0.2611
2 TAUNET_9:1 0.4098
3 TAUNET_9:2 0.5009
4 TAUNET_9:3 0.2843
5 TAUGATE_9:A 0.2878
*RES
2 inst_714:ZN TAUNET_9:1 0.1659
3 TAUNET_9:1 TAUNET_9:2 0.2742
4 TAUNET_9:2 TAUNET_9:3 0.3494
5 TAUNET_9:3 TAUGATE_9:A 0.1485
*END

*D_NET TAUNET_5 1.3760
*CONN
*I inst_1045:ZN O
*I TAUGATE_5:A I
*CAP
1 inst_1045:ZN 0.2110
2 TAUNET_5:1 0.3070
3 TAUNET_5:2 0.3583
4 TAUNET_5:3 0.1395
5 TAUNET_5:4 0.0646
6 TAUNET_5:5 0.0794
7 TAUGATE_5:A 0.2161
*RES
2 inst_1045:ZN TAUNET_5:1 0.1614
3 TAUNET_5:1 TAUNET_5:2 0.3312
4 TAUNET_5:2 TAUNET_5:3 0.3755
5 TAUNET_5:3 TAUNET_5:4 0.4644
6 TAUNET_5:4 TAUNET_5:5 0.4559
7 TAUNET_5:5 TAUGATE_5:A 0.4050
*END

*D_NET TAUNET_8 0.4849
*CONN
*I inst_456:ZN O
*I TAUGATE_8:A I
*CAP
1 inst_456:ZN 0.1670
2 TAUNET_8:1 0.2440
3 TAUNET_8:2 0.0332
4 TAUGATE_8:A 0.0406
*RES
2 inst_456:ZN TAUNET_8:1 0.2732
3 TAUNET_8:1 TAUNET_8:2 0.0073
4 TAUNET_8:2 TAUGATE_8:A 0.1308
*END

*D_NET net_523 1.8161
*CONN
*I TAUGATE_8:Z O
*I inst_474:A1 I
*CAP
1 TAUGATE_8:Z 0.2909
2 net_523:1 0.0740
3 net_523:2 0.4871
4 net_523:3 0.4951
5 net_523:4 0.4125
6 inst_474:A1 0.0565
*RES
2 TAUGATE_8:Z net_523:1 0.1285
3 net_523:1 net_523:2 0.0292
4 net_523:2 net_523:3 0.2926
5 net_523:3 net_523:4 0.4507
6 net_523:4 inst_474:A1 0.3356
*END

*D_NET TAUNET_6 1.9602
*CONN
*I inst_63:Z O
*I TAUGATE_6:A I
*CAP
1 inst_63:Z 0.3845
2 TAUNET_6:1 0.3056
3 TAUNET_6:2 0.3464
4 TAUNET_6:3 0.0305
5 TAUNET_6:4 0.2383
6 TAUNET_6:5 0.4020
7 TAUGATE_6:A 0.2529
*RES
2 inst_63:Z TAUNET_6:1 0.2665
3 TAUNET_6:1 TAUNET_6:2 0.4354
4 TAUNET_6:2 TAUNET_6:3 0.1977
5 TAUNET_6:3 TAUNET_6:4 0.0788
6 TAUNET_6:4 TAUNET_6:5 0.3276
7 TAUNET_6:5 TAUGATE_6:A 0.3833
*END

*D_NET n190 0.8670
*CONN
*I TAUGATE_7:Z O
*I inst_619:A2 I
*CAP
1 TAUGATE_7:Z 0.0716
2 n190:1 0.1922
3 n190:2 0.2805
4 n190:3 0.1322
5 inst_619:A2 0.1905
*RES
2 TAUGATE_7:Z n190:1 0.4017
3 n190:1 n190:2 0.4680
4 n190:2 n190:3 0.2976
5 n190:3 inst_619:A2 0.2331
*END

*D_NET net_326 3.6345
*CONN
*I TAUGATE_9:Z O
*I inst_45:A I
*I inst_63:B I
*I inst_977:A I
*CAP
1 TAUGATE_9:Z 0.3943
2 net_326:1 0.1955
3 net_326:2 0.1868
4 net_326:3 0.4889
5 inst_63:B 0.0703
6 net_326:4 0.3990
7 inst_45:A 0.4035
8 net_326:5 0.4976
9 net_326:6 0.3591
10 net_326:7 0.2780
11 net_326:8 0.2022
12 inst_977:A 0.1593
*RES
2 TAUGATE_9:Z net_326:1 0.3298
3 net_326:1 net_326:2 0.4131
4 net_326:2 net_326:3 0.3310
5 net_326:3 inst_63:B 0.2621
6 net_326:1 net_326:4 0.0219
7 net_326:4 inst_45:A 0.0830
8 net_326:1 net_326:5 0.4382
9 net_326:5 net_326:6 0.3498
10 net_326:6 net_326:7 0.4055
11 net_326:7 net_326:8 0.4519
12 net_326:8 inst_977:A 0.4658
*END

*D_NET TAUNET_7 1.1222
*CONN
*P n190 I
*I TAUGATE_7:A I
*CAP
1 n190 0.4019
2 TAUNET_7:1 0.2503
3 TAUGATE_7:A 0.4700
*RES
2 n190 TAUNET_7:1 0.3789
3 TAUNET_7:1 TAUGATE_7:A 0.3545
*END

*D_NET net_485 6.6352
*CONN
*I TAUGATE_6:Z O
*I inst_158:A I
*I inst_69:A I
*I inst_307:A1 I
*I inst_159:A I
*I inst_438:A2 I
*I inst_1000:A I
*I inst_318:A2 I
*CAP
1 TAUGATE_6:Z 0.4316
2 net_485:1 0.4734
3 net_485:2 0.0376
4 inst_69:A 0.0972
5 net_485:3 0.3840
6 net_485:4 0.2434
7 inst_158:A 0.3726
8 net_485:5 0.4443
9 net_485:6 0.1288
10 inst_307:A1 0.3022
11 net_485:7 0.4814
12 net_485:8 0.1341
13 net_485:9 0.3915
14 net_485:10 0.0282
15 inst_159:A 0.3089
16 net_485:11 0.2288
17 net_485:12 0.0666
18 net_485:13 0.3854
19 net_485:14 0.3580
20 inst_438:A2 0.3774
21 net_485:15 0.3530
22 inst_1000:A 0.1128
23 net_485:16 0.3290
24 net_485:17 0.1620
25 inst_318:A2 0.0029
*RES
2 TAUGATE_6:Z net_485:1 0.3594
3 net_485:1 net_485:2 0.0525
4 net_485:2 inst_69:A 0.3248
5 net_485:2 net_485:3 0.2980
6 net_485:3 net_485:4 0.2454
7 net_485:4 inst_158:A 0.4670
8 net_485:2 net_485:5 0.1405
9 net_485:5 net_485:6 0.0668
10 net_485:6 inst_307:A1 0.3699
11 net_485:6 net_485:7 0.0253
12 net_485:7 net_485:8 0.3105
13 net_485:8 net_485:9 0.1881
14 net_485:9 net_485:10 0.2034
15 net_485:10 inst_159:A 0.1592
16 net_485:6 net_485:11 0.2731
17 net_485:11 net_485:12 0.1525
18 net_485:12 net_485:13 0.0518
19 net_485:13 net_485:14 0.2548
20 net_485:14 inst_438:A2 0.2154
21 net_485:5 net_485:15 0.2239
22 net_485:15 inst_1000:A 0.0917
23 net_485:14 net_485:16 0.2883
24 net_485:16 net_485:17 0.1903
25 net_485:17 inst_318:A2 0.4381
*END

*D_NET net_872 0.3519
*CONN
*I TAUGATE_5:Z O
*I inst_503:A2 I
*CAP
1 TAUGATE_5:Z 0.0801
2 net_872:1 0.1891
3 net_872:2 0.0464
4 inst_503:A2 0.0364
*RES
2 TAUGATE_5:Z net_872:1 0.0279
3 net_872:1 net_872:2 0.4104
4 net_872:2 inst_503:A2 0.0649
*END

