*SPEF "IEEE 1481-1998"
*DESIGN "changes"
*DATE "Tue Dec 02 20:39:05 2014"
*VENDOR "TAU 2015 Contest"
*PROGRAM "Benchmark Parasitic Generator"
*VERSION "0.0"
*DESIGN_FLOW "NETLIST_TYPE_VERILOG"
*DIVIDER /
*DELIMITER :
*BUS_DELIMITER [ ]
*T_UNIT 1 PS
*C_UNIT 1 FF
*R_UNIT 1 KOHM
*L_UNIT 1 UH

*D_NET TAUNET_1 1.7439
*CONN
*P n113 I
*I TAUGATE_1:A I
*CAP
1 n113 0.2611
2 TAUNET_1:1 0.4098
3 TAUNET_1:2 0.5009
4 TAUNET_1:3 0.2843
5 TAUGATE_1:A 0.2878
*RES
2 n113 TAUNET_1:1 0.1659
3 TAUNET_1:1 TAUNET_1:2 0.2742
4 TAUNET_1:2 TAUNET_1:3 0.3494
5 TAUNET_1:3 TAUGATE_1:A 0.1485
*END

*D_NET n113 1.3760
*CONN
*I TAUGATE_1:Z O
*I inst_857:B I
*CAP
1 TAUGATE_1:Z 0.2110
2 n113:1 0.3070
3 n113:2 0.3583
4 n113:3 0.1395
5 n113:4 0.0646
6 n113:5 0.0794
7 inst_857:B 0.2161
*RES
2 TAUGATE_1:Z n113:1 0.1614
3 n113:1 n113:2 0.3312
4 n113:2 n113:3 0.3755
5 n113:3 n113:4 0.4644
6 n113:4 n113:5 0.4559
7 n113:5 inst_857:B 0.4050
*END

