*SPEF "IEEE 1481-1998"
*DESIGN "changes"
*DATE "Tue Dec 02 20:39:05 2014"
*VENDOR "TAU 2015 Contest"
*PROGRAM "Benchmark Parasitic Generator"
*VERSION "0.0"
*DESIGN_FLOW "NETLIST_TYPE_VERILOG"
*DIVIDER /
*DELIMITER :
*BUS_DELIMITER [ ]
*T_UNIT 1 PS
*C_UNIT 1 FF
*R_UNIT 1 KOHM
*L_UNIT 1 UH

*D_NET TAUNET_4 1.7439
*CONN
*I inst_684:ZN O
*I TAUGATE_4:A I
*CAP
1 inst_684:ZN 0.2611
2 TAUNET_4:1 0.4098
3 TAUNET_4:2 0.5009
4 TAUNET_4:3 0.2843
5 TAUGATE_4:A 0.2878
*RES
2 inst_684:ZN TAUNET_4:1 0.1659
3 TAUNET_4:1 TAUNET_4:2 0.2742
4 TAUNET_4:2 TAUNET_4:3 0.3494
5 TAUNET_4:3 TAUGATE_4:A 0.1485
*END

*D_NET TAUNET_2 1.3760
*CONN
*P n236 I
*I TAUGATE_2:A I
*CAP
1 n236 0.2110
2 TAUNET_2:1 0.3070
3 TAUNET_2:2 0.3583
4 TAUNET_2:3 0.1395
5 TAUNET_2:4 0.0646
6 TAUNET_2:5 0.0794
7 TAUGATE_2:A 0.2161
*RES
2 n236 TAUNET_2:1 0.1614
3 TAUNET_2:1 TAUNET_2:2 0.3312
4 TAUNET_2:2 TAUNET_2:3 0.3755
5 TAUNET_2:3 TAUNET_2:4 0.4644
6 TAUNET_2:4 TAUNET_2:5 0.4559
7 TAUNET_2:5 TAUGATE_2:A 0.4050
*END

*D_NET TAUNET_3 0.4849
*CONN
*I inst_384:ZN O
*I TAUGATE_3:A I
*CAP
1 inst_384:ZN 0.1670
2 TAUNET_3:1 0.2440
3 TAUNET_3:2 0.0332
4 TAUGATE_3:A 0.0406
*RES
2 inst_384:ZN TAUNET_3:1 0.2732
3 TAUNET_3:1 TAUNET_3:2 0.0073
4 TAUNET_3:2 TAUGATE_3:A 0.1308
*END

*D_NET net_368 4.4076
*CONN
*I TAUGATE_3:Z O
*I inst_60:A I
*I inst_971:A I
*I inst_129:A I
*CAP
1 TAUGATE_3:Z 0.2909
2 net_368:1 0.0740
3 net_368:2 0.4871
4 net_368:3 0.4951
5 net_368:4 0.4125
6 inst_60:A 0.0565
7 net_368:5 0.4708
8 net_368:6 0.3056
9 net_368:7 0.3464
10 net_368:8 0.0305
11 inst_971:A 0.2383
12 net_368:9 0.3833
13 net_368:10 0.3292
14 net_368:11 0.0716
15 net_368:12 0.2236
16 inst_129:A 0.1922
*RES
2 TAUGATE_3:Z net_368:1 0.1285
3 net_368:1 net_368:2 0.0292
4 net_368:2 net_368:3 0.2926
5 net_368:3 net_368:4 0.4507
6 net_368:4 inst_60:A 0.3356
7 net_368:4 net_368:5 0.4020
8 net_368:5 net_368:6 0.2529
9 net_368:6 net_368:7 0.2665
10 net_368:7 net_368:8 0.4354
11 net_368:8 inst_971:A 0.1977
12 net_368:1 net_368:9 0.2805
13 net_368:9 net_368:10 0.1322
14 net_368:10 net_368:11 0.1905
15 net_368:11 net_368:12 0.4017
16 net_368:12 inst_129:A 0.4680
*END

*D_NET n236 1.2308
*CONN
*I TAUGATE_2:Z O
*I inst_615:A2 I
*CAP
1 TAUGATE_2:Z 0.2331
2 n236:1 0.3943
3 n236:2 0.2211
4 n236:3 0.1955
5 inst_615:A2 0.1868
*RES
2 TAUGATE_2:Z n236:1 0.4889
3 n236:1 n236:2 0.0703
4 n236:2 n236:3 0.3298
5 n236:3 inst_615:A2 0.4131
*END

*D_NET net_136 1.4221
*CONN
*I TAUGATE_4:Z O
*I inst_100:B I
*CAP
1 TAUGATE_4:Z 0.2621
2 net_136:1 0.1808
3 net_136:2 0.0717
4 net_136:3 0.3990
5 net_136:4 0.4035
6 net_136:5 0.0219
7 inst_100:B 0.0830
*RES
2 TAUGATE_4:Z net_136:1 0.4539
3 net_136:1 net_136:2 0.1250
4 net_136:2 net_136:3 0.3196
5 net_136:3 net_136:4 0.4976
6 net_136:4 net_136:5 0.3591
7 net_136:5 inst_100:B 0.2780
*END

