*SPEF "IEEE 1481-1998"
*DESIGN "changes"
*DATE "Tue Dec 02 20:39:08 2014"
*VENDOR "TAU 2015 Contest"
*PROGRAM "Benchmark Parasitic Generator"
*VERSION "0.0"
*DESIGN_FLOW "NETLIST_TYPE_VERILOG"
*DIVIDER /
*DELIMITER :
*BUS_DELIMITER [ ]
*T_UNIT 1 PS
*C_UNIT 1 FF
*R_UNIT 1 KOHM
*L_UNIT 1 UH

*D_NET TAUNET_1181 3.0173
*CONN
*I TAUGATE_1127:Z O
*I TAUGATE_1181:A I
*I inst_473:A2 I
*CAP
1 TAUGATE_1127:Z 0.2611
2 TAUNET_1181:1 0.4098
3 TAUNET_1181:2 0.5009
4 TAUNET_1181:3 0.2843
5 TAUGATE_1181:A 0.2878
6 TAUNET_1181:4 0.4685
7 TAUNET_1181:5 0.3070
8 TAUNET_1181:6 0.3583
9 inst_473:A2 0.1395
*RES
2 TAUGATE_1127:Z TAUNET_1181:1 0.1659
3 TAUNET_1181:1 TAUNET_1181:2 0.2742
4 TAUNET_1181:2 TAUNET_1181:3 0.3494
5 TAUNET_1181:3 TAUGATE_1181:A 0.1485
6 TAUNET_1181:3 TAUNET_1181:4 0.0646
7 TAUNET_1181:4 TAUNET_1181:5 0.0794
8 TAUNET_1181:5 TAUNET_1181:6 0.2161
9 TAUNET_1181:6 inst_473:A2 0.1614
*END

*D_NET net_708 3.3435
*CONN
*I inst_470:ZN O
*I inst_840:A1 I
*I inst_1034:A I
*CAP
1 inst_470:ZN 0.3755
2 net_708:1 0.4559
3 net_708:2 0.4050
4 net_708:3 0.0154
5 net_708:4 0.1670
6 net_708:5 0.1555
7 inst_1034:A 0.2440
8 net_708:6 0.0740
9 net_708:7 0.4871
10 net_708:8 0.4951
11 net_708:9 0.4125
12 inst_840:A1 0.0565
*RES
2 inst_470:ZN net_708:1 0.0332
3 net_708:1 net_708:2 0.0406
4 net_708:2 net_708:3 0.2732
5 net_708:3 net_708:4 0.0073
6 net_708:4 net_708:5 0.1308
7 net_708:5 inst_1034:A 0.1374
8 net_708:4 net_708:6 0.1285
9 net_708:6 net_708:7 0.0292
10 net_708:7 net_708:8 0.2926
11 net_708:8 net_708:9 0.4507
12 net_708:9 inst_840:A1 0.3356
*END

*D_NET TAUNET_114 1.9602
*CONN
*I TAUGATE_187:Z O
*I TAUGATE_114:A I
*CAP
1 TAUGATE_187:Z 0.3845
2 TAUNET_114:1 0.3056
3 TAUNET_114:2 0.3464
4 TAUNET_114:3 0.0305
5 TAUNET_114:4 0.2383
6 TAUNET_114:5 0.4020
7 TAUGATE_114:A 0.2529
*RES
2 TAUGATE_187:Z TAUNET_114:1 0.2665
3 TAUNET_114:1 TAUNET_114:2 0.4354
4 TAUNET_114:2 TAUNET_114:3 0.1977
5 TAUNET_114:3 TAUNET_114:4 0.0788
6 TAUNET_114:4 TAUNET_114:5 0.3276
7 TAUNET_114:5 TAUGATE_114:A 0.3833
*END

*D_NET net_72 0.8670
*CONN
*I inst_640:ZN O
*I inst_722:A1 I
*CAP
1 inst_640:ZN 0.0716
2 net_72:1 0.1922
3 net_72:2 0.2805
4 net_72:3 0.1322
5 inst_722:A1 0.1905
*RES
2 inst_640:ZN net_72:1 0.4017
3 net_72:1 net_72:2 0.4680
4 net_72:2 net_72:3 0.2976
5 net_72:3 inst_722:A1 0.2331
*END

*D_NET net_189 1.3358
*CONN
*I inst_730:ZN O
*I inst_538:A1 I
*CAP
1 inst_730:ZN 0.3943
2 net_189:1 0.1955
3 net_189:2 0.1868
4 net_189:3 0.4889
5 inst_538:A1 0.0703
*RES
2 inst_730:ZN net_189:1 0.3298
3 net_189:1 net_189:2 0.4131
4 net_189:2 net_189:3 0.3310
5 net_189:3 inst_538:A1 0.2621
*END

