*SPEF "IEEE 1481-1998"
*DESIGN "changes"
*DATE "Tue Dec 02 20:39:08 2014"
*VENDOR "TAU 2015 Contest"
*PROGRAM "Benchmark Parasitic Generator"
*VERSION "0.0"
*DESIGN_FLOW "NETLIST_TYPE_VERILOG"
*DIVIDER /
*DELIMITER :
*BUS_DELIMITER [ ]
*T_UNIT 1 PS
*C_UNIT 1 FF
*R_UNIT 1 KOHM
*L_UNIT 1 UH

*D_NET n408 3.0173
*CONN
*I inst_518:ZN O
*P n408 O
*I inst_305:A2 I
*CAP
1 inst_518:ZN 0.2611
2 n408:1 0.4098
3 n408:2 0.5009
4 n408:3 0.2843
5 n408 0.2878
6 n408:4 0.4685
7 n408:5 0.3070
8 n408:6 0.3583
9 inst_305:A2 0.1395
*RES
2 inst_518:ZN n408:1 0.1659
3 n408:1 n408:2 0.2742
4 n408:2 n408:3 0.3494
5 n408:3 n408 0.1485
6 n408:3 n408:4 0.0646
7 n408:4 n408:5 0.0794
8 n408:5 n408:6 0.2161
9 n408:6 inst_305:A2 0.1614
*END

*D_NET n2 1.8183
*CONN
*I inst_1096:Z O
*P n2 O
*CAP
1 inst_1096:Z 0.3755
2 n2:1 0.4559
3 n2:2 0.4050
4 n2:3 0.0154
5 n2:4 0.1670
6 n2:5 0.1555
7 n2 0.2440
*RES
2 inst_1096:Z n2:1 0.0332
3 n2:1 n2:2 0.0406
4 n2:2 n2:3 0.2732
5 n2:3 n2:4 0.0073
6 n2:4 n2:5 0.1308
7 n2:5 n2 0.1374
*END

*D_NET n522 1.3529
*CONN
*I inst_1067:Z O
*P n522 O
*CAP
1 inst_1067:Z 0.3706
2 n522:1 0.4871
3 n522 0.4951
*RES
2 inst_1067:Z n522:1 0.4125
3 n522:1 n522 0.0565
*END

*D_NET net_296 1.5997
*CONN
*I TAUGATE_1178:Z O
*I inst_157:A I
*CAP
1 TAUGATE_1178:Z 0.0292
2 net_296:1 0.4507
3 net_296:2 0.3356
4 net_296:3 0.3995
5 inst_157:A 0.3845
*RES
2 TAUGATE_1178:Z net_296:1 0.4708
3 net_296:1 net_296:2 0.3056
4 net_296:2 net_296:3 0.3464
5 net_296:3 inst_157:A 0.0305
*END

*D_NET net_137 1.9835
*CONN
*I TAUGATE_21:Z O
*I inst_704:A2 I
*I inst_685:A2 I
*CAP
1 TAUGATE_21:Z 0.4020
2 net_137:1 0.2665
3 net_137:2 0.4354
4 net_137:3 0.1977
5 inst_704:A2 0.0788
6 net_137:4 0.2805
7 net_137:5 0.1322
8 inst_685:A2 0.1905
*RES
2 TAUGATE_21:Z net_137:1 0.3276
3 net_137:1 net_137:2 0.3833
4 net_137:2 net_137:3 0.3292
5 net_137:3 inst_704:A2 0.0716
6 net_137:2 net_137:4 0.4017
7 net_137:4 net_137:5 0.4680
8 net_137:5 inst_685:A2 0.2976
*END

*D_NET n18 52.9593
*CONN
*P n18 I
*I inst_642:A1 I
*I inst_606:A1 I
*I inst_636:A1 I
*I inst_632:A1 I
*I inst_605:A1 I
*I inst_644:A1 I
*I inst_597:A2 I
*I inst_628:A2 I
*I inst_638:A1 I
*I inst_614:A1 I
*I inst_603:A1 I
*I inst_609:A1 I
*I inst_619:A1 I
*I inst_639:A1 I
*I inst_641:A2 I
*I inst_627:A1 I
*I inst_629:A1 I
*I inst_623:A1 I
*I inst_616:A1 I
*I inst_620:A2 I
*I inst_600:A1 I
*I inst_630:A1 I
*I inst_647:A1 I
*I inst_607:A1 I
*I inst_625:A1 I
*I inst_634:A1 I
*I inst_610:A1 I
*I inst_612:A2 I
*I inst_615:A1 I
*I inst_643:A1 I
*I inst_624:A1 I
*I inst_919:A I
*I inst_598:A1 I
*I inst_617:A1 I
*I inst_596:A2 I
*I inst_637:A1 I
*I inst_604:A1 I
*I inst_645:A1 I
*I inst_622:A1 I
*I inst_602:A1 I
*I inst_611:A1 I
*I inst_618:A1 I
*I inst_648:A1 I
*I inst_626:A1 I
*I inst_631:A1 I
*I inst_640:A1 I
*I inst_613:A2 I
*I inst_635:A1 I
*I inst_601:A2 I
*I inst_633:A1 I
*I inst_608:A1 I
*CAP
1 n18 0.2927
2 n18:1 0.2211
3 n18:2 0.1955
4 n18:3 0.1868
5 n18:4 0.4889
6 inst_607:A1 0.0703
7 n18:5 0.3990
8 inst_606:A1 0.4035
9 n18:6 0.4976
10 n18:7 0.3591
11 n18:8 0.2780
12 n18:9 0.2022
13 inst_636:A1 0.1593
14 n18:10 0.0632
15 n18:11 0.2503
16 n18:12 0.4700
17 n18:13 0.3789
18 n18:14 0.3545
19 inst_632:A1 0.1033
20 n18:15 0.2597
21 n18:16 0.1267
22 n18:17 0.3840
23 n18:18 0.2434
24 inst_605:A1 0.3726
25 n18:19 0.3022
26 n18:20 0.1405
27 inst_644:A1 0.0668
28 n18:21 0.3915
29 n18:22 0.0282
30 inst_597:A2 0.3089
31 n18:23 0.2761
32 n18:24 0.3643
33 n18:25 0.2288
34 n18:26 0.0666
35 inst_628:A2 0.3854
36 n18:27 0.4921
37 n18:28 0.1648
38 n18:29 0.1855
39 inst_638:A1 0.0112
40 n18:30 0.3290
41 n18:31 0.1620
42 inst_614:A1 0.0029
43 n18:32 0.1891
44 n18:33 0.0464
45 inst_603:A1 0.0364
46 n18:34 0.1748
47 n18:35 0.4787
48 inst_609:A1 0.1076
49 n18:36 0.3644
50 inst_619:A1 0.0829
51 n18:37 0.4065
52 n18:38 0.3164
53 n18:39 0.3513
54 n18:40 0.1165
55 n18:41 0.0986
56 inst_639:A1 0.2243
57 n18:42 0.4974
58 n18:43 0.3047
59 inst_641:A2 0.1200
60 n18:44 0.2763
61 inst_627:A1 0.2945
62 n18:45 0.1317
63 n18:46 0.3617
64 n18:47 0.0856
65 n18:48 0.3629
66 inst_629:A1 0.2821
67 n18:49 0.2907
68 n18:50 0.0362
69 n18:51 0.4966
70 n18:52 0.4101
71 inst_623:A1 0.2702
72 n18:53 0.3090
73 n18:54 0.3972
74 n18:55 0.4228
75 n18:56 0.2443
76 inst_616:A1 0.2458
77 n18:57 0.0472
78 n18:58 0.4436
79 n18:59 0.1981
80 n18:60 0.3275
81 inst_620:A2 0.0169
82 n18:61 0.3875
83 n18:62 0.4796
84 n18:63 0.3740
85 n18:64 0.1554
86 n18:65 0.0209
87 inst_600:A1 0.4380
88 n18:66 0.2969
89 n18:67 0.3091
90 n18:68 0.5006
91 inst_630:A1 0.2264
92 n18:69 0.1857
93 n18:70 0.0562
94 n18:71 0.0882
95 n18:72 0.4386
96 inst_647:A1 0.2715
97 n18:73 0.0212
98 n18:74 0.1417
99 inst_642:A1 0.2190
100 n18:75 0.0526
101 n18:76 0.2388
102 n18:77 0.1787
103 inst_625:A1 0.3603
104 n18:78 0.4935
105 inst_634:A1 0.2412
106 n18:79 0.0266
107 inst_610:A1 0.0274
108 n18:80 0.0145
109 n18:81 0.0725
110 n18:82 0.4492
111 n18:83 0.3124
112 inst_612:A2 0.3685
113 n18:84 0.3675
114 n18:85 0.4634
115 inst_615:A1 0.2869
116 n18:86 0.4648
117 n18:87 0.2376
118 n18:88 0.1146
119 n18:89 0.3081
120 inst_643:A1 0.1439
121 n18:90 0.0204
122 inst_624:A1 0.2219
123 n18:91 0.0267
124 inst_919:A 0.1278
125 n18:92 0.4751
126 n18:93 0.3195
127 n18:94 0.4748
128 n18:95 0.2505
129 inst_598:A1 0.2036
130 n18:96 0.2723
131 n18:97 0.2079
132 n18:98 0.2449
133 inst_617:A1 0.0406
134 n18:99 0.1553
135 n18:100 0.0937
136 inst_596:A2 0.2944
137 n18:101 0.3672
138 n18:102 0.4629
139 n18:103 0.1157
140 n18:104 0.1901
141 n18:105 0.2138
142 inst_637:A1 0.5008
143 n18:106 0.4503
144 n18:107 0.3676
145 n18:108 0.1603
146 n18:109 0.4423
147 inst_604:A1 0.1159
148 n18:110 0.4114
149 n18:111 0.0715
150 n18:112 0.1546
151 inst_645:A1 0.1861
152 n18:113 0.0613
153 n18:114 0.1692
154 inst_622:A1 0.4407
155 n18:115 0.3072
156 n18:116 0.2768
157 n18:117 0.1679
158 inst_602:A1 0.2053
159 n18:118 0.3806
160 n18:119 0.4946
161 n18:120 0.4608
162 n18:121 0.4692
163 n18:122 0.4766
164 inst_611:A1 0.0589
165 n18:123 0.4748
166 n18:124 0.0806
167 inst_618:A1 0.0407
168 n18:125 0.2640
169 n18:126 0.1831
170 n18:127 0.4110
171 inst_648:A1 0.0191
172 n18:128 0.4025
173 n18:129 0.5010
174 n18:130 0.3538
175 inst_626:A1 0.4649
176 n18:131 0.3761
177 n18:132 0.0616
178 n18:133 0.4298
179 inst_631:A1 0.2857
180 n18:134 0.1284
181 n18:135 0.0036
182 n18:136 0.1731
183 n18:137 0.2737
184 n18:138 0.3095
185 inst_640:A1 0.4895
186 n18:139 0.4915
187 n18:140 0.0683
188 inst_613:A2 0.2135
189 n18:141 0.4806
190 n18:142 0.3473
191 inst_635:A1 0.1114
192 n18:143 0.1592
193 n18:144 0.4236
194 n18:145 0.3328
195 n18:146 0.1906
196 inst_601:A2 0.5003
197 n18:147 0.3610
198 n18:148 0.0042
199 n18:149 0.2690
200 inst_633:A1 0.3841
201 n18:150 0.4290
202 inst_608:A1 0.4891
*RES
2 n18 n18:1 0.3298
3 n18:1 n18:2 0.4131
4 n18:2 n18:3 0.3310
5 n18:3 n18:4 0.2621
6 n18:4 inst_607:A1 0.4792
7 n18:2 n18:5 0.0219
8 n18:5 inst_606:A1 0.0830
9 n18:1 n18:6 0.4382
10 n18:6 n18:7 0.3498
11 n18:7 n18:8 0.4055
12 n18:8 n18:9 0.4519
13 n18:9 inst_636:A1 0.4658
14 n18:7 n18:10 0.4316
15 n18:10 n18:11 0.1782
16 n18:11 n18:12 0.4734
17 n18:12 n18:13 0.0376
18 n18:13 n18:14 0.0972
19 n18:14 inst_632:A1 0.3594
20 n18:1 n18:15 0.2980
21 n18:15 n18:16 0.2454
22 n18:16 n18:17 0.4670
23 n18:17 n18:18 0.1921
24 n18:18 inst_605:A1 0.1376
25 n18:17 n18:19 0.3699
26 n18:19 n18:20 0.4131
27 n18:20 inst_644:A1 0.4004
28 n18:20 n18:21 0.0253
29 n18:21 n18:22 0.3105
30 n18:22 inst_597:A2 0.1881
31 n18:7 n18:23 0.3580
32 n18:23 n18:24 0.3774
33 n18:24 n18:25 0.2731
34 n18:25 n18:26 0.1525
35 n18:26 inst_628:A2 0.0518
36 n18:14 n18:27 0.3530
37 n18:27 n18:28 0.1128
38 n18:28 n18:29 0.2239
39 n18:29 inst_638:A1 0.0917
40 n18:25 n18:30 0.2883
41 n18:30 n18:31 0.1903
42 n18:31 inst_614:A1 0.4381
43 n18:5 n18:32 0.0279
44 n18:32 n18:33 0.4104
45 n18:33 inst_603:A1 0.0649
46 n18:4 n18:34 0.4606
47 n18:34 n18:35 0.3388
48 n18:35 inst_609:A1 0.4657
49 n18:27 n18:36 0.1977
50 n18:36 inst_619:A1 0.4694
51 n18:4 n18:37 0.1286
52 n18:37 n18:38 0.4269
53 n18:38 n18:39 0.2482
54 n18:39 n18:40 0.2195
55 n18:40 n18:41 0.1533
56 n18:41 inst_639:A1 0.4091
57 n18:31 n18:42 0.4969
58 n18:42 n18:43 0.1210
59 n18:43 inst_641:A2 0.1733
60 n18:9 n18:44 0.3177
61 n18:44 inst_627:A1 0.2101
62 n18:19 n18:45 0.3900
63 n18:45 n18:46 0.0557
64 n18:46 n18:47 0.1253
65 n18:47 n18:48 0.2716
66 n18:48 inst_629:A1 0.3735
67 n18:11 n18:49 0.2135
68 n18:49 n18:50 0.0419
69 n18:50 n18:51 0.2773
70 n18:51 n18:52 0.0903
71 n18:52 inst_623:A1 0.0485
72 n18:22 n18:53 0.3734
73 n18:53 n18:54 0.1567
74 n18:54 n18:55 0.1247
75 n18:55 n18:56 0.2439
76 n18:56 inst_616:A1 0.2588
77 n18:50 n18:57 0.4026
78 n18:57 n18:58 0.4684
79 n18:58 n18:59 0.2490
80 n18:59 n18:60 0.0579
81 n18:60 inst_620:A2 0.0423
82 n18:35 n18:61 0.4130
83 n18:61 n18:62 0.4990
84 n18:62 n18:63 0.2134
85 n18:63 n18:64 0.1115
86 n18:64 n18:65 0.4947
87 n18:65 inst_600:A1 0.3666
88 n18:58 n18:66 0.3973
89 n18:66 n18:67 0.2044
90 n18:67 n18:68 0.1531
91 n18:68 inst_630:A1 0.3886
92 n18:54 n18:69 0.0199
93 n18:69 n18:70 0.4145
94 n18:70 n18:71 0.1459
95 n18:71 n18:72 0.1130
96 n18:72 inst_647:A1 0.1026
97 n18:29 n18:73 0.4826
98 n18:73 n18:74 0.1138
99 n18:74 inst_642:A1 0.4033
100 n18:54 n18:75 0.0603
101 n18:75 n18:76 0.0863
102 n18:76 n18:77 0.3102
103 n18:77 inst_625:A1 0.1239
104 n18:37 n18:78 0.3995
105 n18:78 inst_634:A1 0.4441
106 n18:67 n18:79 0.4218
107 n18:79 inst_610:A1 0.2061
108 n18:74 n18:80 0.4317
109 n18:80 n18:81 0.1801
110 n18:81 n18:82 0.2826
111 n18:82 n18:83 0.3420
112 n18:83 inst_612:A2 0.0965
113 n18:43 n18:84 0.1646
114 n18:84 n18:85 0.1182
115 n18:85 inst_615:A1 0.0327
116 n18:10 n18:86 0.0264
117 n18:86 n18:87 0.2502
118 n18:87 n18:88 0.2506
119 n18:88 n18:89 0.4486
120 n18:89 inst_643:A1 0.0641
121 n18:3 n18:90 0.1001
122 n18:90 inst_624:A1 0.2747
123 n18:2 n18:91 0.1079
124 n18:91 inst_919:A 0.3621
125 n18:23 n18:92 0.3990
126 n18:92 n18:93 0.0185
127 n18:93 n18:94 0.3777
128 n18:94 n18:95 0.2437
129 n18:95 inst_598:A1 0.3641
130 n18:28 n18:96 0.0917
131 n18:96 n18:97 0.0078
132 n18:97 n18:98 0.0227
133 n18:98 inst_617:A1 0.0264
134 n18:4 n18:99 0.3987
135 n18:99 n18:100 0.0209
136 n18:100 inst_596:A2 0.1182
137 n18:22 n18:101 0.2979
138 n18:101 n18:102 0.3428
139 n18:102 n18:103 0.2325
140 n18:103 n18:104 0.2733
141 n18:104 n18:105 0.1266
142 n18:105 inst_637:A1 0.3814
143 n18:70 n18:106 0.4527
144 n18:106 n18:107 0.1465
145 n18:107 n18:108 0.1463
146 n18:108 n18:109 0.4621
147 n18:109 inst_604:A1 0.4065
148 n18:5 n18:110 0.4367
149 n18:110 n18:111 0.3452
150 n18:111 n18:112 0.0313
151 n18:112 inst_645:A1 0.1217
152 n18:3 n18:113 0.4978
153 n18:113 n18:114 0.2563
154 n18:114 inst_622:A1 0.2595
155 n18:60 n18:115 0.2140
156 n18:115 n18:116 0.3306
157 n18:116 n18:117 0.1569
158 n18:117 inst_602:A1 0.2580
159 n18:50 n18:118 0.0962
160 n18:118 n18:119 0.2415
161 n18:119 n18:120 0.1750
162 n18:120 n18:121 0.4103
163 n18:121 n18:122 0.0845
164 n18:122 inst_611:A1 0.1888
165 n18:35 n18:123 0.2069
166 n18:123 n18:124 0.0491
167 n18:124 inst_618:A1 0.4137
168 n18:77 n18:125 0.3538
169 n18:125 n18:126 0.4300
170 n18:126 n18:127 0.3629
171 n18:127 inst_648:A1 0.0787
172 n18:51 n18:128 0.0482
173 n18:128 n18:129 0.1062
174 n18:129 n18:130 0.2963
175 n18:130 inst_626:A1 0.4911
176 n18:52 n18:131 0.2634
177 n18:131 n18:132 0.0470
178 n18:132 n18:133 0.0745
179 n18:133 inst_631:A1 0.1738
180 n18:115 n18:134 0.4033
181 n18:134 n18:135 0.2734
182 n18:135 n18:136 0.3461
183 n18:136 n18:137 0.3729
184 n18:137 n18:138 0.0418
185 n18:138 inst_640:A1 0.3671
186 n18:105 n18:139 0.4484
187 n18:139 n18:140 0.1379
188 n18:140 inst_613:A2 0.1139
189 n18:24 n18:141 0.0198
190 n18:141 n18:142 0.2366
191 n18:142 inst_635:A1 0.1100
192 n18:80 n18:143 0.4347
193 n18:143 n18:144 0.3044
194 n18:144 n18:145 0.1394
195 n18:145 n18:146 0.0096
196 n18:146 inst_601:A2 0.4963
197 n18:70 n18:147 0.3400
198 n18:147 n18:148 0.2352
199 n18:148 n18:149 0.3112
200 n18:149 inst_633:A1 0.1345
201 n18:123 n18:150 0.0621
202 n18:150 inst_608:A1 0.2122
*END

*D_NET TAUNET_1022 3.8382
*CONN
*I TAUGATE_638:Z O
*I TAUGATE_1022:A I
*I inst_535:A1 I
*I inst_809:A1 I
*I inst_1142:A1 I
*I inst_579:A1 I
*CAP
1 TAUGATE_638:Z 0.1253
2 TAUNET_1022:1 0.2343
3 TAUNET_1022:2 0.1106
4 TAUNET_1022:3 0.0283
5 inst_809:A1 0.2644
6 TAUNET_1022:4 0.0520
7 TAUNET_1022:5 0.1787
8 TAUNET_1022:6 0.3277
9 inst_535:A1 0.2308
10 TAUNET_1022:7 0.3450
11 TAUGATE_1022:A 0.2552
12 TAUNET_1022:8 0.2132
13 TAUNET_1022:9 0.3448
14 inst_1142:A1 0.2539
15 TAUNET_1022:10 0.3825
16 inst_579:A1 0.4916
*RES
2 TAUGATE_638:Z TAUNET_1022:1 0.3395
3 TAUNET_1022:1 TAUNET_1022:2 0.4160
4 TAUNET_1022:2 TAUNET_1022:3 0.1311
5 TAUNET_1022:3 inst_809:A1 0.1702
6 TAUNET_1022:2 TAUNET_1022:4 0.1825
7 TAUNET_1022:4 TAUNET_1022:5 0.4154
8 TAUNET_1022:5 TAUNET_1022:6 0.4205
9 TAUNET_1022:6 inst_535:A1 0.1921
10 TAUNET_1022:4 TAUNET_1022:7 0.2397
11 TAUNET_1022:7 TAUGATE_1022:A 0.3943
12 TAUNET_1022:6 TAUNET_1022:8 0.0169
13 TAUNET_1022:8 TAUNET_1022:9 0.2910
14 TAUNET_1022:9 inst_1142:A1 0.3418
15 TAUNET_1022:5 TAUNET_1022:10 0.0258
16 TAUNET_1022:10 inst_579:A1 0.0722
*END

*D_NET n556 0.1761
*CONN
*I inst_1050:Z O
*P n556 O
*CAP
1 inst_1050:Z 0.0274
2 n556:1 0.0758
3 n556 0.0730
*RES
2 inst_1050:Z n556:1 0.2996
3 n556:1 n556 0.1500
*END

*D_NET net_105 1.1459
*CONN
*I inst_380:ZN O
*I inst_388:A2 I
*CAP
1 inst_380:ZN 0.0605
2 net_105:1 0.4347
3 net_105:2 0.2976
4 inst_388:A2 0.3531
*RES
2 inst_380:ZN net_105:1 0.0316
3 net_105:1 net_105:2 0.1823
4 net_105:2 inst_388:A2 0.0755
*END

*D_NET n61 1.1637
*CONN
*P n61 I
*I inst_876:B I
*CAP
1 n61 0.3515
2 n61:1 0.4269
3 n61:2 0.0493
4 n61:3 0.0341
5 inst_876:B 0.3020
*RES
2 n61 n61:1 0.3389
3 n61:1 n61:2 0.4000
4 n61:2 n61:3 0.0188
5 n61:3 inst_876:B 0.4709
*END

*D_NET net_782 1.8818
*CONN
*I inst_479:ZN O
*I inst_817:A2 I
*I inst_485:A2 I
*CAP
1 inst_479:ZN 0.0122
2 net_782:1 0.0936
3 net_782:2 0.3051
4 net_782:3 0.1197
5 inst_485:A2 0.2956
6 net_782:4 0.0161
7 net_782:5 0.2047
8 net_782:6 0.3729
9 net_782:7 0.0610
10 inst_817:A2 0.4010
*RES
2 inst_479:ZN net_782:1 0.2210
3 net_782:1 net_782:2 0.0970
4 net_782:2 net_782:3 0.2798
5 net_782:3 inst_485:A2 0.3150
6 net_782:2 net_782:4 0.2910
7 net_782:4 net_782:5 0.3768
8 net_782:5 net_782:6 0.3083
9 net_782:6 net_782:7 0.1250
10 net_782:7 inst_817:A2 0.3526
*END

*D_NET net_429 1.6292
*CONN
*I inst_768:ZN O
*I inst_784:A1 I
*CAP
1 inst_768:ZN 0.3144
2 net_429:1 0.0820
3 net_429:2 0.2174
4 net_429:3 0.3638
5 net_429:4 0.4097
6 inst_784:A1 0.2418
*RES
2 inst_768:ZN net_429:1 0.4080
3 net_429:1 net_429:2 0.3118
4 net_429:2 net_429:3 0.4981
5 net_429:3 net_429:4 0.3134
6 net_429:4 inst_784:A1 0.4059
*END

*D_NET net_694 0.9494
*CONN
*I inst_802:ZN O
*I inst_347:A2 I
*CAP
1 inst_802:ZN 0.0910
2 net_694:1 0.3093
3 net_694:2 0.3342
4 inst_347:A2 0.2150
*RES
2 inst_802:ZN net_694:1 0.0109
3 net_694:1 net_694:2 0.1830
4 net_694:2 inst_347:A2 0.2298
*END

*D_NET net_532 0.1587
*CONN
*I inst_460:ZN O
*I inst_551:A1 I
*CAP
1 inst_460:ZN 0.0044
2 net_532:1 0.0476
3 net_532:2 0.0521
4 inst_551:A1 0.0546
*RES
2 inst_460:ZN net_532:1 0.0043
3 net_532:1 net_532:2 0.2737
4 net_532:2 inst_551:A1 0.4724
*END

*D_NET net_557 2.4167
*CONN
*I inst_323:ZN O
*I inst_586:A3 I
*I inst_467:A2 I
*CAP
1 inst_323:ZN 0.2426
2 net_557:1 0.2784
3 net_557:2 0.2008
4 inst_467:A2 0.3776
5 net_557:3 0.2336
6 net_557:4 0.3863
7 net_557:5 0.2365
8 net_557:6 0.1037
9 inst_586:A3 0.3572
*RES
2 inst_323:ZN net_557:1 0.2937
3 net_557:1 net_557:2 0.0093
4 net_557:2 inst_467:A2 0.2822
5 net_557:2 net_557:3 0.2211
6 net_557:3 net_557:4 0.2185
7 net_557:4 net_557:5 0.2266
8 net_557:5 net_557:6 0.2538
9 net_557:6 inst_586:A3 0.1297
*END

*D_NET net_739 1.5261
*CONN
*I inst_199:ZN O
*I inst_546:A1 I
*CAP
1 inst_199:ZN 0.2417
2 net_739:1 0.4262
3 net_739:2 0.3737
4 net_739:3 0.3015
5 inst_546:A1 0.1830
*RES
2 inst_199:ZN net_739:1 0.3035
3 net_739:1 net_739:2 0.4053
4 net_739:2 net_739:3 0.0863
5 net_739:3 inst_546:A1 0.2362
*END

*D_NET net_12 1.0858
*CONN
*I inst_936:ZN O
*I inst_891:A I
*CAP
1 inst_936:ZN 0.0277
2 net_12:1 0.2912
3 net_12:2 0.1111
4 net_12:3 0.3711
5 net_12:4 0.0512
6 net_12:5 0.1351
7 inst_891:A 0.0984
*RES
2 inst_936:ZN net_12:1 0.0368
3 net_12:1 net_12:2 0.4376
4 net_12:2 net_12:3 0.1423
5 net_12:3 net_12:4 0.1283
6 net_12:4 net_12:5 0.1146
7 net_12:5 inst_891:A 0.3234
*END

*D_NET net_978 1.6441
*CONN
*I inst_906:Z O
*I inst_300:A I
*CAP
1 inst_906:Z 0.4832
2 net_978:1 0.3781
3 net_978:2 0.3766
4 net_978:3 0.0185
5 inst_300:A 0.3877
*RES
2 inst_906:Z net_978:1 0.1588
3 net_978:1 net_978:2 0.3738
4 net_978:2 net_978:3 0.4556
5 net_978:3 inst_300:A 0.1835
*END

*D_NET net_356 2.7296
*CONN
*I inst_391:ZN O
*I inst_55:A I
*I inst_56:B I
*I inst_733:A1 I
*CAP
1 inst_391:ZN 0.2614
2 net_356:1 0.2164
3 net_356:2 0.4372
4 net_356:3 0.1158
5 inst_55:A 0.1153
6 net_356:4 0.4625
7 net_356:5 0.2343
8 net_356:6 0.0981
9 inst_56:B 0.3461
10 net_356:7 0.2455
11 inst_733:A1 0.1970
*RES
2 inst_391:ZN net_356:1 0.3810
3 net_356:1 net_356:2 0.1100
4 net_356:2 net_356:3 0.1662
5 net_356:3 inst_55:A 0.3178
6 net_356:2 net_356:4 0.2382
7 net_356:4 net_356:5 0.4109
8 net_356:5 net_356:6 0.0945
9 net_356:6 inst_56:B 0.2326
10 net_356:3 net_356:7 0.0138
11 net_356:7 inst_733:A1 0.4527
*END

*D_NET net_545 2.1550
*CONN
*I inst_341:ZN O
*I inst_1134:A2 I
*CAP
1 inst_341:ZN 0.4392
2 net_545:1 0.0368
3 net_545:2 0.3283
4 net_545:3 0.2266
5 net_545:4 0.4199
6 net_545:5 0.3736
7 inst_1134:A2 0.3306
*RES
2 inst_341:ZN net_545:1 0.3042
3 net_545:1 net_545:2 0.1317
4 net_545:2 net_545:3 0.1481
5 net_545:3 net_545:4 0.2485
6 net_545:4 net_545:5 0.2201
7 net_545:5 inst_1134:A2 0.2966
*END

*D_NET TAUNET_31 0.5227
*CONN
*I inst_813:ZN O
*I TAUGATE_31:A I
*CAP
1 inst_813:ZN 0.0758
2 TAUNET_31:1 0.3812
3 TAUGATE_31:A 0.0656
*RES
2 inst_813:ZN TAUNET_31:1 0.1550
3 TAUNET_31:1 TAUGATE_31:A 0.0047
*END

*D_NET net_916 3.4340
*CONN
*I inst_503:ZN O
*I inst_507:A2 I
*I inst_1141:A2 I
*CAP
1 inst_503:ZN 0.2138
2 net_916:1 0.2523
3 net_916:2 0.0497
4 net_916:3 0.4938
5 net_916:4 0.3913
6 inst_507:A2 0.2131
7 net_916:5 0.2663
8 net_916:6 0.3641
9 net_916:7 0.1740
10 net_916:8 0.2701
11 net_916:9 0.3351
12 inst_1141:A2 0.4105
*RES
2 inst_503:ZN net_916:1 0.3201
3 net_916:1 net_916:2 0.0320
4 net_916:2 net_916:3 0.2786
5 net_916:3 net_916:4 0.3378
6 net_916:4 inst_507:A2 0.4364
7 net_916:2 net_916:5 0.3004
8 net_916:5 net_916:6 0.3665
9 net_916:6 net_916:7 0.1341
10 net_916:7 net_916:8 0.0859
11 net_916:8 net_916:9 0.1706
12 net_916:9 inst_1141:A2 0.3812
*END

*D_NET net_302 3.1151
*CONN
*I inst_729:ZN O
*I inst_32:B I
*I inst_38:A I
*I inst_562:A2 I
*CAP
1 inst_729:ZN 0.1227
2 net_302:1 0.0059
3 inst_32:B 0.3552
4 net_302:2 0.3594
5 net_302:3 0.4902
6 net_302:4 0.4716
7 net_302:5 0.2112
8 inst_38:A 0.1762
9 net_302:6 0.4669
10 net_302:7 0.1932
11 net_302:8 0.0675
12 net_302:9 0.0053
13 net_302:10 0.1459
14 inst_562:A2 0.0437
*RES
2 inst_729:ZN net_302:1 0.3839
3 net_302:1 inst_32:B 0.1840
4 net_302:1 net_302:2 0.1166
5 net_302:2 net_302:3 0.1660
6 net_302:3 net_302:4 0.2177
7 net_302:4 net_302:5 0.2908
8 net_302:5 inst_38:A 0.3318
9 net_302:4 net_302:6 0.4598
10 net_302:6 net_302:7 0.3838
11 net_302:7 net_302:8 0.2033
12 net_302:8 net_302:9 0.3263
13 net_302:9 net_302:10 0.4574
14 net_302:10 inst_562:A2 0.4683
*END

*D_NET n113 1.4761
*CONN
*I TAUGATE_1:Z O
*I inst_857:B I
*CAP
1 TAUGATE_1:Z 0.4873
2 n113:1 0.4800
3 n113:2 0.4518
4 inst_857:B 0.0570
*RES
2 TAUGATE_1:Z n113:1 0.4909
3 n113:1 n113:2 0.0572
4 n113:2 inst_857:B 0.5008
*END

*D_NET net_477 2.4403
*CONN
*I inst_559:ZN O
*I inst_539:A3 I
*CAP
1 inst_559:ZN 0.2457
2 net_477:1 0.2594
3 net_477:2 0.3565
4 net_477:3 0.4074
5 net_477:4 0.4309
6 net_477:5 0.4474
7 inst_539:A3 0.2931
*RES
2 inst_559:ZN net_477:1 0.2848
3 net_477:1 net_477:2 0.2246
4 net_477:2 net_477:3 0.3320
5 net_477:3 net_477:4 0.3870
6 net_477:4 net_477:5 0.3663
7 net_477:5 inst_539:A3 0.1512
*END

*D_NET TAUNET_57 2.3961
*CONN
*I inst_914:Z O
*I TAUGATE_57:A I
*CAP
1 inst_914:Z 0.4493
2 TAUNET_57:1 0.2866
3 TAUNET_57:2 0.1873
4 TAUNET_57:3 0.1599
5 TAUNET_57:4 0.3589
6 TAUNET_57:5 0.4697
7 TAUGATE_57:A 0.4844
*RES
2 inst_914:Z TAUNET_57:1 0.0401
3 TAUNET_57:1 TAUNET_57:2 0.2861
4 TAUNET_57:2 TAUNET_57:3 0.1883
5 TAUNET_57:3 TAUNET_57:4 0.3075
6 TAUNET_57:4 TAUNET_57:5 0.0604
7 TAUNET_57:5 TAUGATE_57:A 0.3908
*END

*D_NET net_940 1.0274
*CONN
*I inst_257:ZN O
*I inst_268:B I
*CAP
1 inst_257:ZN 0.4162
2 net_940:1 0.0491
3 net_940:2 0.3511
4 inst_268:B 0.2111
*RES
2 inst_257:ZN net_940:1 0.3010
3 net_940:1 net_940:2 0.1515
4 net_940:2 inst_268:B 0.0492
*END

*D_NET TAUNET_381 1.9812
*CONN
*I TAUGATE_618:Z O
*I TAUGATE_381:A I
*I inst_884:A I
*CAP
1 TAUGATE_618:Z 0.0711
2 TAUNET_381:1 0.0021
3 TAUNET_381:2 0.2080
4 TAUNET_381:3 0.3529
5 inst_884:A 0.4886
6 TAUNET_381:4 0.0882
7 TAUNET_381:5 0.2924
8 TAUGATE_381:A 0.4780
*RES
2 TAUGATE_618:Z TAUNET_381:1 0.3648
3 TAUNET_381:1 TAUNET_381:2 0.4404
4 TAUNET_381:2 TAUNET_381:3 0.3187
5 TAUNET_381:3 inst_884:A 0.4272
6 TAUNET_381:2 TAUNET_381:4 0.3510
7 TAUNET_381:4 TAUNET_381:5 0.1182
8 TAUNET_381:5 TAUGATE_381:A 0.2614
*END

*D_NET net_259 3.2119
*CONN
*I inst_875:Z O
*I inst_18:A I
*I inst_4:B I
*I inst_565:A1 I
*CAP
1 inst_875:Z 0.2582
2 net_259:1 0.0762
3 net_259:2 0.1986
4 net_259:3 0.3922
5 net_259:4 0.3950
6 net_259:5 0.2666
7 inst_18:A 0.4255
8 net_259:6 0.3579
9 net_259:7 0.1300
10 inst_4:B 0.3795
11 net_259:8 0.3126
12 inst_565:A1 0.0195
*RES
2 inst_875:Z net_259:1 0.4671
3 net_259:1 net_259:2 0.2972
4 net_259:2 net_259:3 0.3936
5 net_259:3 net_259:4 0.4880
6 net_259:4 net_259:5 0.4169
7 net_259:5 inst_18:A 0.3167
8 net_259:4 net_259:6 0.2362
9 net_259:6 net_259:7 0.1908
10 net_259:7 inst_4:B 0.1996
11 net_259:2 net_259:8 0.0541
12 net_259:8 inst_565:A1 0.3700
*END

*D_NET net_269 4.2666
*CONN
*I inst_863:Z O
*I inst_529:A3 I
*I inst_92:A I
*I inst_23:B I
*CAP
1 inst_863:Z 0.3466
2 net_269:1 0.4038
3 net_269:2 0.1954
4 net_269:3 0.0063
5 net_269:4 0.4904
6 net_269:5 0.0915
7 inst_92:A 0.4619
8 net_269:6 0.0765
9 net_269:7 0.1980
10 net_269:8 0.3226
11 inst_529:A3 0.1282
12 net_269:9 0.4631
13 net_269:10 0.0407
14 net_269:11 0.4130
15 net_269:12 0.3462
16 net_269:13 0.0714
17 inst_23:B 0.2110
*RES
2 inst_863:Z net_269:1 0.1065
3 net_269:1 net_269:2 0.1990
4 net_269:2 net_269:3 0.2576
5 net_269:3 net_269:4 0.0690
6 net_269:4 net_269:5 0.2231
7 net_269:5 inst_92:A 0.2934
8 net_269:1 net_269:6 0.2766
9 net_269:6 net_269:7 0.4045
10 net_269:7 net_269:8 0.4267
11 net_269:8 inst_529:A3 0.4596
12 net_269:6 net_269:9 0.2588
13 net_269:9 net_269:10 0.0339
14 net_269:10 net_269:11 0.0519
15 net_269:11 net_269:12 0.4874
16 net_269:12 net_269:13 0.0374
17 net_269:13 inst_23:B 0.2489
*END

*D_NET net_548 2.7950
*CONN
*I inst_446:ZN O
*I inst_1141:A1 I
*I inst_1129:A2 I
*I inst_777:A2 I
*CAP
1 inst_446:ZN 0.0346
2 net_548:1 0.0645
3 net_548:2 0.3416
4 net_548:3 0.4099
5 net_548:4 0.1540
6 net_548:5 0.0325
7 inst_1129:A2 0.0924
8 net_548:6 0.2001
9 inst_1141:A1 0.4220
10 net_548:7 0.2030
11 net_548:8 0.2656
12 net_548:9 0.4413
13 inst_777:A2 0.1336
*RES
2 inst_446:ZN net_548:1 0.1850
3 net_548:1 net_548:2 0.1516
4 net_548:2 net_548:3 0.2746
5 net_548:3 net_548:4 0.4228
6 net_548:4 net_548:5 0.1417
7 net_548:5 inst_1129:A2 0.3754
8 net_548:2 net_548:6 0.4926
9 net_548:6 inst_1141:A1 0.0580
10 net_548:3 net_548:7 0.4042
11 net_548:7 net_548:8 0.0451
12 net_548:8 net_548:9 0.2391
13 net_548:9 inst_777:A2 0.0321
*END

*D_NET TAUNET_1153 4.3159
*CONN
*I TAUGATE_644:Z O
*I TAUGATE_1153:A I
*I inst_765:A2 I
*I inst_1106:A1 I
*I inst_771:A2 I
*CAP
1 TAUGATE_644:Z 0.0857
2 TAUNET_1153:1 0.2245
3 TAUNET_1153:2 0.4797
4 TAUNET_1153:3 0.0551
5 inst_771:A2 0.1877
6 TAUNET_1153:4 0.2497
7 TAUNET_1153:5 0.2766
8 TAUNET_1153:6 0.3086
9 TAUNET_1153:7 0.2353
10 TAUNET_1153:8 0.4838
11 inst_765:A2 0.0722
12 TAUNET_1153:9 0.1347
13 TAUNET_1153:10 0.0224
14 inst_1106:A1 0.3933
15 TAUNET_1153:11 0.4918
16 TAUNET_1153:12 0.3583
17 TAUNET_1153:13 0.0251
18 TAUNET_1153:14 0.0071
19 TAUGATE_1153:A 0.2242
*RES
2 TAUGATE_644:Z TAUNET_1153:1 0.0973
3 TAUNET_1153:1 TAUNET_1153:2 0.4235
4 TAUNET_1153:2 TAUNET_1153:3 0.1903
5 TAUNET_1153:3 inst_771:A2 0.2143
6 TAUNET_1153:2 TAUNET_1153:4 0.3539
7 TAUNET_1153:4 TAUNET_1153:5 0.3446
8 TAUNET_1153:5 TAUNET_1153:6 0.0192
9 TAUNET_1153:6 TAUNET_1153:7 0.1341
10 TAUNET_1153:7 TAUNET_1153:8 0.4054
11 TAUNET_1153:8 inst_765:A2 0.3681
12 TAUNET_1153:8 TAUNET_1153:9 0.2244
13 TAUNET_1153:9 TAUNET_1153:10 0.4154
14 TAUNET_1153:10 inst_1106:A1 0.1374
15 TAUNET_1153:4 TAUNET_1153:11 0.4834
16 TAUNET_1153:11 TAUNET_1153:12 0.4589
17 TAUNET_1153:12 TAUNET_1153:13 0.0098
18 TAUNET_1153:13 TAUNET_1153:14 0.3264
19 TAUNET_1153:14 TAUGATE_1153:A 0.2846
*END

*D_NET net_469 5.9059
*CONN
*I inst_37:Z O
*I inst_1121:A2 I
*I inst_1119:A2 I
*I inst_528:A2 I
*I inst_524:A2 I
*CAP
1 inst_37:Z 0.1185
2 net_469:1 0.3703
3 net_469:2 0.0365
4 net_469:3 0.4409
5 net_469:4 0.4335
6 net_469:5 0.3158
7 inst_524:A2 0.2513
8 net_469:6 0.1489
9 net_469:7 0.3442
10 net_469:8 0.1815
11 net_469:9 0.2112
12 net_469:10 0.3238
13 inst_1119:A2 0.1536
14 net_469:11 0.4660
15 net_469:12 0.3296
16 net_469:13 0.2711
17 net_469:14 0.1177
18 net_469:15 0.1130
19 inst_528:A2 0.0719
20 net_469:16 0.4330
21 net_469:17 0.3792
22 inst_1121:A2 0.3945
*RES
2 inst_37:Z net_469:1 0.4798
3 net_469:1 net_469:2 0.1640
4 net_469:2 net_469:3 0.1778
5 net_469:3 net_469:4 0.3155
6 net_469:4 net_469:5 0.4909
7 net_469:5 inst_524:A2 0.2285
8 net_469:3 net_469:6 0.2744
9 net_469:6 net_469:7 0.3973
10 net_469:7 net_469:8 0.0682
11 net_469:8 net_469:9 0.0813
12 net_469:9 net_469:10 0.2235
13 net_469:10 inst_1119:A2 0.0018
14 net_469:10 net_469:11 0.2913
15 net_469:11 net_469:12 0.3837
16 net_469:12 net_469:13 0.4308
17 net_469:13 net_469:14 0.4593
18 net_469:14 net_469:15 0.4578
19 net_469:15 inst_528:A2 0.1666
20 net_469:14 net_469:16 0.1168
21 net_469:16 net_469:17 0.0632
22 net_469:17 inst_1121:A2 0.3389
*END

*D_NET net_984 0.9961
*CONN
*I inst_908:Z O
*I inst_301:A I
*CAP
1 inst_908:Z 0.0022
2 net_984:1 0.0342
3 net_984:2 0.1492
4 net_984:3 0.1342
5 net_984:4 0.2299
6 inst_301:A 0.4466
*RES
2 inst_908:Z net_984:1 0.0789
3 net_984:1 net_984:2 0.1418
4 net_984:2 net_984:3 0.2162
5 net_984:3 net_984:4 0.3480
6 net_984:4 inst_301:A 0.3423
*END

*D_NET net_630 4.6272
*CONN
*I TAUGATE_210:Z O
*I inst_1022:A I
*I inst_782:A1 I
*I inst_455:A1 I
*I inst_325:A1 I
*I inst_192:A I
*CAP
1 TAUGATE_210:Z 0.3077
2 net_630:1 0.3818
3 inst_325:A1 0.2326
4 net_630:2 0.0694
5 net_630:3 0.1731
6 net_630:4 0.0340
7 inst_782:A1 0.1910
8 net_630:5 0.0975
9 net_630:6 0.1398
10 net_630:7 0.3850
11 inst_455:A1 0.2235
12 net_630:8 0.3040
13 net_630:9 0.3068
14 net_630:10 0.1313
15 net_630:11 0.0490
16 inst_1022:A 0.1490
17 net_630:12 0.4065
18 net_630:13 0.3838
19 net_630:14 0.2328
20 net_630:15 0.0616
21 inst_192:A 0.3670
*RES
2 TAUGATE_210:Z net_630:1 0.3632
3 net_630:1 inst_325:A1 0.2277
4 net_630:1 net_630:2 0.0233
5 net_630:2 net_630:3 0.1519
6 net_630:3 net_630:4 0.4158
7 net_630:4 inst_782:A1 0.0326
8 net_630:2 net_630:5 0.2530
9 net_630:5 net_630:6 0.0538
10 net_630:6 net_630:7 0.1085
11 net_630:7 inst_455:A1 0.3839
12 net_630:2 net_630:8 0.4082
13 net_630:8 net_630:9 0.0586
14 net_630:9 net_630:10 0.2553
15 net_630:10 net_630:11 0.4766
16 net_630:11 inst_1022:A 0.4662
17 net_630:2 net_630:12 0.3852
18 net_630:12 net_630:13 0.1467
19 net_630:13 net_630:14 0.2409
20 net_630:14 net_630:15 0.4071
21 net_630:15 inst_192:A 0.2078
*END

*D_NET net_999 5.2668
*CONN
*I TAUGATE_1461:Z O
*I inst_452:A2 I
*I inst_268:A I
*I inst_462:A1 I
*I inst_275:A I
*I inst_86:B I
*I inst_448:A2 I
*I inst_535:A2 I
*CAP
1 TAUGATE_1461:Z 0.2212
2 net_999:1 0.1904
3 inst_268:A 0.2527
4 net_999:2 0.0062
5 net_999:3 0.2799
6 net_999:4 0.1542
7 net_999:5 0.1497
8 inst_452:A2 0.2415
9 net_999:6 0.1204
10 net_999:7 0.0927
11 net_999:8 0.1679
12 net_999:9 0.0593
13 inst_462:A1 0.3745
14 net_999:10 0.1359
15 net_999:11 0.3553
16 inst_275:A 0.1500
17 net_999:12 0.1724
18 net_999:13 0.0056
19 net_999:14 0.0020
20 net_999:15 0.0117
21 net_999:16 0.2437
22 inst_86:B 0.2268
23 net_999:17 0.2535
24 net_999:18 0.2194
25 net_999:19 0.1135
26 inst_448:A2 0.4544
27 net_999:20 0.4083
28 inst_535:A2 0.2037
*RES
2 TAUGATE_1461:Z net_999:1 0.0491
3 net_999:1 inst_268:A 0.0298
4 net_999:1 net_999:2 0.4946
5 net_999:2 net_999:3 0.2980
6 net_999:3 net_999:4 0.1661
7 net_999:4 net_999:5 0.4120
8 net_999:5 inst_452:A2 0.1627
9 net_999:4 net_999:6 0.1708
10 net_999:6 net_999:7 0.0756
11 net_999:7 net_999:8 0.2634
12 net_999:8 net_999:9 0.4707
13 net_999:9 inst_462:A1 0.4356
14 net_999:9 net_999:10 0.4264
15 net_999:10 net_999:11 0.0163
16 net_999:11 inst_275:A 0.2331
17 net_999:11 net_999:12 0.2690
18 net_999:12 net_999:13 0.0296
19 net_999:13 net_999:14 0.2418
20 net_999:14 net_999:15 0.1876
21 net_999:15 net_999:16 0.0595
22 net_999:16 inst_86:B 0.2550
23 net_999:16 net_999:17 0.4819
24 net_999:17 net_999:18 0.3078
25 net_999:18 net_999:19 0.3570
26 net_999:19 inst_448:A2 0.3670
27 net_999:3 net_999:20 0.1594
28 net_999:20 inst_535:A2 0.3957
*END

*D_NET net_501 3.3493
*CONN
*I inst_740:ZN O
*I inst_452:A1 I
*I inst_588:A2 I
*CAP
1 inst_740:ZN 0.4522
2 net_501:1 0.1824
3 net_501:2 0.4992
4 net_501:3 0.3686
5 net_501:4 0.1667
6 inst_588:A2 0.4317
7 net_501:5 0.4359
8 net_501:6 0.0471
9 net_501:7 0.4771
10 net_501:8 0.1294
11 net_501:9 0.0595
12 inst_452:A1 0.0997
*RES
2 inst_740:ZN net_501:1 0.1120
3 net_501:1 net_501:2 0.0039
4 net_501:2 net_501:3 0.4142
5 net_501:3 net_501:4 0.1371
6 net_501:4 inst_588:A2 0.2330
7 net_501:3 net_501:5 0.0816
8 net_501:5 net_501:6 0.0662
9 net_501:6 net_501:7 0.4666
10 net_501:7 net_501:8 0.1226
11 net_501:8 net_501:9 0.1952
12 net_501:9 inst_452:A1 0.1999
*END

*D_NET net_908 1.3770
*CONN
*I inst_837:ZN O
*I inst_262:A I
*CAP
1 inst_837:ZN 0.3714
2 net_908:1 0.2815
3 net_908:2 0.2732
4 inst_262:A 0.4508
*RES
2 inst_837:ZN net_908:1 0.0764
3 net_908:1 net_908:2 0.0865
4 net_908:2 inst_262:A 0.1765
*END

*D_NET n160 2.0500
*CONN
*P n160 I
*I inst_597:A1 I
*CAP
1 n160 0.0392
2 n160:1 0.2748
3 n160:2 0.4790
4 n160:3 0.2826
5 n160:4 0.4852