*SPEF "IEEE 1481-1998"
*DESIGN "changes"
*DATE "Tue Dec 02 20:32:59 2014"
*VENDOR "TAU 2015 Contest"
*PROGRAM "Benchmark Parasitic Generator"
*VERSION "0.0"
*DESIGN_FLOW "NETLIST_TYPE_VERILOG"
*DIVIDER /
*DELIMITER :
*BUS_DELIMITER [ ]
*T_UNIT 1 PS
*C_UNIT 1 FF
*R_UNIT 1 KOHM
*L_UNIT 1 UH

*D_NET TAUNET_4 1.7439
*CONN
*I inst_2217:ZN O
*I TAUGATE_4:A I
*CAP
1 inst_2217:ZN 0.2611
2 TAUNET_4:1 0.4098
3 TAUNET_4:2 0.5009
4 TAUNET_4:3 0.2843
5 TAUGATE_4:A 0.2878
*RES
2 inst_2217:ZN TAUNET_4:1 0.1659
3 TAUNET_4:1 TAUNET_4:2 0.2742
4 TAUNET_4:2 TAUNET_4:3 0.3494
5 TAUNET_4:3 TAUGATE_4:A 0.1485
*END

*D_NET TAUNET_2 1.3760
*CONN
*I inst_2747:ZN O
*I TAUGATE_2:A I
*CAP
1 inst_2747:ZN 0.2110
2 TAUNET_2:1 0.3070
3 TAUNET_2:2 0.3583
4 TAUNET_2:3 0.1395
5 TAUNET_2:4 0.0646
6 TAUNET_2:5 0.0794
7 TAUGATE_2:A 0.2161
*RES
2 inst_2747:ZN TAUNET_2:1 0.1614
3 TAUNET_2:1 TAUNET_2:2 0.3312
4 TAUNET_2:2 TAUNET_2:3 0.3755
5 TAUNET_2:3 TAUNET_2:4 0.4644
6 TAUNET_2:4 TAUNET_2:5 0.4559
7 TAUNET_2:5 TAUGATE_2:A 0.4050
*END

*D_NET TAUNET_3 0.4849
*CONN
*I inst_3143:QN O
*I TAUGATE_3:A I
*CAP
1 inst_3143:QN 0.1670
2 TAUNET_3:1 0.2440
3 TAUNET_3:2 0.0332
4 TAUGATE_3:A 0.0406
*RES
2 inst_3143:QN TAUNET_3:1 0.2732
3 TAUNET_3:1 TAUNET_3:2 0.0073
4 TAUNET_3:2 TAUGATE_3:A 0.1308
*END

*D_NET net_2096 3.2076
*CONN
*I TAUGATE_4:Z O
*I inst_1664:A1 I
*I inst_1665:A1 I
*CAP
1 TAUGATE_4:Z 0.2909
2 net_2096:1 0.0740
3 net_2096:2 0.4871
4 net_2096:3 0.4951
5 net_2096:4 0.4125
6 inst_1664:A1 0.0565
7 net_2096:5 0.4708
8 net_2096:6 0.3056
9 net_2096:7 0.3464
10 net_2096:8 0.0305
11 inst_1665:A1 0.2383
*RES
2 TAUGATE_4:Z net_2096:1 0.1285
3 net_2096:1 net_2096:2 0.0292
4 net_2096:2 net_2096:3 0.2926
5 net_2096:3 net_2096:4 0.4507
6 net_2096:4 inst_1664:A1 0.3356
7 net_2096:4 net_2096:5 0.4020
8 net_2096:5 net_2096:6 0.2529
9 net_2096:6 net_2096:7 0.2665
10 net_2096:7 net_2096:8 0.4354
11 net_2096:8 inst_1665:A1 0.1977
*END

*D_NET net_3103 8.2089
*CONN
*I TAUGATE_3:Z O
*I inst_4110:A2 I
*I inst_419:B2 I
*I inst_2421:A I
*I inst_107:B I
*I inst_919:A3 I
*I inst_436:C2 I
*I inst_3096:B I
*CAP
1 TAUGATE_3:Z 0.3276
2 net_3103:1 0.3292
3 net_3103:2 0.0716
4 net_3103:3 0.2236
5 net_3103:4 0.1922
6 inst_419:B2 0.2805
7 net_3103:5 0.3943
8 net_3103:6 0.2211
9 net_3103:7 0.1955
10 inst_4110:A2 0.1868
11 net_3103:8 0.4792
12 net_3103:9 0.1808
13 net_3103:10 0.0717
14 inst_2421:A 0.3990
15 net_3103:11 0.4976
16 net_3103:12 0.3591
17 net_3103:13 0.2780
18 net_3103:14 0.2022
19 inst_107:B 0.1593
20 net_3103:15 0.2503
21 inst_919:A3 0.4700
22 net_3103:16 0.1782
23 net_3103:17 0.4734
24 net_3103:18 0.0376
25 net_3103:19 0.0972
26 net_3103:20 0.3594
27 inst_436:C2 0.0525
28 net_3103:21 0.4670
29 net_3103:22 0.1921
30 net_3103:23 0.1376
31 inst_3096:B 0.4443
*RES
2 TAUGATE_3:Z net_3103:1 0.1322
3 net_3103:1 net_3103:2 0.1905
4 net_3103:2 net_3103:3 0.4017
5 net_3103:3 net_3103:4 0.4680
6 net_3103:4 inst_419:B2 0.2976
7 net_3103:2 net_3103:5 0.4889
8 net_3103:5 net_3103:6 0.0703
9 net_3103:6 net_3103:7 0.3298
10 net_3103:7 inst_4110:A2 0.4131
11 net_3103:5 net_3103:8 0.4035
12 net_3103:8 net_3103:9 0.0219
13 net_3103:9 net_3103:10 0.0830
14 net_3103:10 inst_2421:A 0.4539
15 net_3103:3 net_3103:11 0.4382
16 net_3103:11 net_3103:12 0.3498
17 net_3103:12 net_3103:13 0.4055
18 net_3103:13 net_3103:14 0.4519
19 net_3103:14 inst_107:B 0.4658
20 net_3103:12 net_3103:15 0.3789
21 net_3103:15 inst_919:A3 0.3545
22 net_3103:4 net_3103:16 0.3248
23 net_3103:16 net_3103:17 0.2597
24 net_3103:17 net_3103:18 0.1267
25 net_3103:18 net_3103:19 0.3840
26 net_3103:19 net_3103:20 0.2434
27 net_3103:20 inst_436:C2 0.3726
28 net_3103:13 net_3103:21 0.1288
29 net_3103:21 net_3103:22 0.3022
30 net_3103:22 net_3103:23 0.1405
31 net_3103:23 inst_3096:B 0.0668
*END

*D_NET net_1146 1.7573
*CONN
*I TAUGATE_2:Z O
*I inst_3616:B1 I
*CAP
1 TAUGATE_2:Z 0.4131
2 net_1146:1 0.4814
3 net_1146:2 0.1341
4 net_1146:3 0.3915
5 net_1146:4 0.0282
6 inst_3616:B1 0.3089
*RES
2 TAUGATE_2:Z net_1146:1 0.0253
3 net_1146:1 net_1146:2 0.3105
4 net_1146:2 net_1146:3 0.1881
5 net_1146:3 net_1146:4 0.2034
6 net_1146:4 inst_3616:B1 0.1592
*END

