*SPEF "IEEE 1481-1998"
*DESIGN "changes"
*DATE "Tue Dec 02 20:32:59 2014"
*VENDOR "TAU 2015 Contest"
*PROGRAM "Benchmark Parasitic Generator"
*VERSION "0.0"
*DESIGN_FLOW "NETLIST_TYPE_VERILOG"
*DIVIDER /
*DELIMITER :
*BUS_DELIMITER [ ]
*T_UNIT 1 PS
*C_UNIT 1 FF
*R_UNIT 1 KOHM
*L_UNIT 1 UH

*D_NET TAUNET_9 1.7439
*CONN
*I inst_4120:ZN O
*I TAUGATE_9:A I
*CAP
1 inst_4120:ZN 0.2611
2 TAUNET_9:1 0.4098
3 TAUNET_9:2 0.5009
4 TAUNET_9:3 0.2843
5 TAUGATE_9:A 0.2878
*RES
2 inst_4120:ZN TAUNET_9:1 0.1659
3 TAUNET_9:1 TAUNET_9:2 0.2742
4 TAUNET_9:2 TAUNET_9:3 0.3494
5 TAUNET_9:3 TAUGATE_9:A 0.1485
*END

*D_NET net_4043 3.1207
*CONN
*I TAUGATE_9:Z O
*I inst_1292:A1 I
*I inst_3947:B1 I
*I inst_4072:A1 I
*CAP
1 TAUGATE_9:Z 0.2110
2 net_4043:1 0.3070
3 net_4043:2 0.3583
4 net_4043:3 0.1395
5 net_4043:4 0.0646
6 net_4043:5 0.0794
7 inst_3947:B1 0.2161
8 net_4043:6 0.2440
9 net_4043:7 0.0332
10 inst_1292:A1 0.0406
11 net_4043:8 0.3706
12 net_4043:9 0.0740
13 net_4043:10 0.4871
14 inst_4072:A1 0.4951
*RES
2 TAUGATE_9:Z net_4043:1 0.1614
3 net_4043:1 net_4043:2 0.3312
4 net_4043:2 net_4043:3 0.3755
5 net_4043:3 net_4043:4 0.4644
6 net_4043:4 net_4043:5 0.4559
7 net_4043:5 inst_3947:B1 0.4050
8 net_4043:2 net_4043:6 0.2732
9 net_4043:6 net_4043:7 0.0073
10 net_4043:7 inst_1292:A1 0.1308
11 net_4043:2 net_4043:8 0.4125
12 net_4043:8 net_4043:9 0.0565
13 net_4043:9 net_4043:10 0.1285
14 net_4043:10 inst_4072:A1 0.0292
*END

*D_NET TAUNET_5 2.3577
*CONN
*I inst_2568:ZN O
*I TAUGATE_5:A I
*CAP
1 inst_2568:ZN 0.4507
2 TAUNET_5:1 0.3995
3 TAUNET_5:2 0.3845
4 TAUNET_5:3 0.4708
5 TAUNET_5:4 0.3056
6 TAUGATE_5:A 0.3464
*RES
2 inst_2568:ZN TAUNET_5:1 0.0305
3 TAUNET_5:1 TAUNET_5:2 0.2383
4 TAUNET_5:2 TAUNET_5:3 0.4020
5 TAUNET_5:3 TAUNET_5:4 0.2529
6 TAUNET_5:4 TAUGATE_5:A 0.2665
*END

*D_NET TAUNET_8 0.9086
*CONN
*I inst_2150:ZN O
*I TAUGATE_8:A I
*CAP
1 inst_2150:ZN 0.1977
2 TAUNET_8:1 0.3276
3 TAUGATE_8:A 0.3833
*RES
2 inst_2150:ZN TAUNET_8:1 0.3292
3 TAUNET_8:1 TAUGATE_8:A 0.0716
*END

*D_NET net_3789 14.0404
*CONN
*I TAUGATE_6:Z O
*I inst_1769:A2 I
*I inst_311:B2 I
*I inst_2381:A I
*I inst_1365:A2 I
*I inst_1158:A1 I
*I inst_429:B2 I
*I inst_696:B2 I
*I inst_2345:A I
*I inst_3919:C2 I
*I inst_714:B2 I
*I inst_3781:B2 I
*I inst_411:B2 I
*I inst_976:A2 I
*CAP
1 TAUGATE_6:Z 0.1922
2 net_3789:1 0.1322
3 net_3789:2 0.1905
4 net_3789:3 0.4017
5 inst_429:B2 0.4680
6 net_3789:4 0.1868
7 net_3789:5 0.4889
8 inst_311:B2 0.0703
9 net_3789:6 0.3990
10 inst_2381:A 0.4035
11 net_3789:7 0.4976
12 net_3789:8 0.3591
13 net_3789:9 0.2780
14 net_3789:10 0.2022
15 inst_1365:A2 0.1593
16 net_3789:11 0.0632
17 net_3789:12 0.2503
18 net_3789:13 0.4700
19 net_3789:14 0.3789
20 net_3789:15 0.3545
21 inst_1158:A1 0.1033
22 net_3789:16 0.2597
23 net_3789:17 0.1267
24 net_3789:18 0.3840
25 net_3789:19 0.2434
26 inst_1769:A2 0.3726
27 net_3789:20 0.3022
28 net_3789:21 0.1405
29 inst_696:B2 0.0668
30 net_3789:22 0.3915
31 net_3789:23 0.0282
32 inst_2345:A 0.3089
33 net_3789:24 0.3147
34 net_3789:25 0.2761
35 inst_3919:C2 0.3643
36 net_3789:26 0.2731
37 net_3789:27 0.1525
38 net_3789:28 0.0518
39 net_3789:29 0.2548
40 inst_714:B2 0.2154
41 net_3789:30 0.0917
42 net_3789:31 0.4230
43 net_3789:32 0.1494
44 inst_3781:B2 0.3290
45 net_3789:33 0.0801
46 net_3789:34 0.1392
47 net_3789:35 0.1891
48 net_3789:36 0.0464
49 inst_411:B2 0.0364
50 net_3789:37 0.1076
51 net_3789:38 0.4606
52 net_3789:39 0.3388
53 net_3789:40 0.4657
54 net_3789:41 0.3595
55 inst_976:A2 0.2471
*RES
2 TAUGATE_6:Z net_3789:1 0.2976
3 net_3789:1 net_3789:2 0.2331
4 net_3789:2 net_3789:3 0.2927
5 net_3789:3 inst_429:B2 0.3943
6 net_3789:2 net_3789:4 0.3298
7 net_3789:4 net_3789:5 0.4131
8 net_3789:5 inst_311:B2 0.3310
9 net_3789:2 net_3789:6 0.0219
10 net_3789:6 inst_2381:A 0.0830
11 net_3789:2 net_3789:7 0.4382
12 net_3789:7 net_3789:8 0.3498
13 net_3789:8 net_3789:9 0.4055
14 net_3789:9 net_3789:10 0.4519
15 net_3789:10 inst_1365:A2 0.4658
16 net_3789:8 net_3789:11 0.4316
17 net_3789:11 net_3789:12 0.1782
18 net_3789:12 net_3789:13 0.4734
19 net_3789:13 net_3789:14 0.0376
20 net_3789:14 net_3789:15 0.0972
21 net_3789:15 inst_1158:A1 0.3594
22 net_3789:2 net_3789:16 0.2980
23 net_3789:16 net_3789:17 0.2454
24 net_3789:17 net_3789:18 0.4670
25 net_3789:18 net_3789:19 0.1921
26 net_3789:19 inst_1769:A2 0.1376
27 net_3789:18 net_3789:20 0.3699
28 net_3789:20 net_3789:21 0.4131
29 net_3789:21 inst_696:B2 0.4004
30 net_3789:21 net_3789:22 0.0253
31 net_3789:22 net_3789:23 0.3105
32 net_3789:23 inst_2345:A 0.1881
33 net_3789:9 net_3789:24 0.2288
34 net_3789:24 net_3789:25 0.0666
35 net_3789:25 inst_3919:C2 0.3854
36 net_3789:19 net_3789:26 0.4921
37 net_3789:26 net_3789:27 0.1648
38 net_3789:27 net_3789:28 0.1855
39 net_3789:28 net_3789:29 0.0112
40 net_3789:29 inst_714:B2 0.3530
41 net_3789:6 net_3789:30 0.1620
42 net_3789:30 net_3789:31 0.0029
43 net_3789:31 net_3789:32 0.2883
44 net_3789:32 inst_3781:B2 0.1903
45 net_3789:29 net_3789:33 0.0279
46 net_3789:33 net_3789:34 0.4104
47 net_3789:34 net_3789:35 0.0649
48 net_3789:35 net_3789:36 0.0510
49 net_3789:36 inst_411:B2 0.1600
50 net_3789:13 net_3789:37 0.0832
51 net_3789:37 net_3789:38 0.0580
52 net_3789:38 net_3789:39 0.3736
53 net_3789:39 net_3789:40 0.0395
54 net_3789:40 net_3789:41 0.3644
55 net_3789:41 inst_976:A2 0.0829
*END

*D_NET net_3541 3.9155
*CONN
*I TAUGATE_5:Z O
*I inst_2098:A1 I
*I inst_1435:A1 I
*CAP
1 TAUGATE_5:Z 0.4694
2 net_3541:1 0.3882
3 net_3541:2 0.4950
4 net_3541:3 0.0413
5 net_3541:4 0.4651
6 inst_2098:A1 0.4065
7 net_3541:5 0.2482
8 net_3541:6 0.2195
9 net_3541:7 0.1533
10 net_3541:8 0.4091
11 net_3541:9 0.2613
12 inst_1435:A1 0.3587
*RES
2 TAUGATE_5:Z net_3541:1 0.3164
3 net_3541:1 net_3541:2 0.3513
4 net_3541:2 net_3541:3 0.1165
5 net_3541:3 net_3541:4 0.0986
6 net_3541:4 inst_2098:A1 0.2243
7 net_3541:1 net_3541:5 0.1869
8 net_3541:5 net_3541:6 0.4974
9 net_3541:6 net_3541:7 0.3047
10 net_3541:7 net_3541:8 0.1200
11 net_3541:8 net_3541:9 0.4969
12 net_3541:9 inst_1435:A1 0.1210
*END

*D_NET TAUNET_6 0.6722
*CONN
*I inst_2037:ZN O
*I TAUGATE_6:A I
*CAP
1 inst_2037:ZN 0.1014
2 TAUNET_6:1 0.2763
3 TAUGATE_6:A 0.2945
*RES
2 inst_2037:ZN TAUNET_6:1 0.3177
3 TAUNET_6:1 TAUGATE_6:A 0.2101
*END

*D_NET net_2779 1.4286
*CONN
*I TAUGATE_7:Z O
*I inst_3344:D I
*CAP
1 TAUGATE_7:Z 0.2046
2 net_2779:1 0.1317
3 net_2779:2 0.3617
4 net_2779:3 0.0856
5 net_2779:4 0.3629
6 inst_3344:D 0.2821
*RES
2 TAUGATE_7:Z net_2779:1 0.3900
3 net_2779:1 net_2779:2 0.0557
4 net_2779:2 net_2779:3 0.1253
5 net_2779:3 net_2779:4 0.2716
6 net_2779:4 inst_3344:D 0.3735
*END

*D_NET TAUNET_7 1.5454
*CONN
*I inst_783:ZN O
*I TAUGATE_7:A I
*CAP
1 inst_783:ZN 0.3323
2 TAUNET_7:1 0.0362
3 TAUNET_7:2 0.4966
4 TAUNET_7:3 0.4101
5 TAUGATE_7:A 0.2702
*RES
2 inst_783:ZN TAUNET_7:1 0.2135
3 TAUNET_7:1 TAUNET_7:2 0.0419
4 TAUNET_7:2 TAUNET_7:3 0.2773
5 TAUNET_7:3 TAUGATE_7:A 0.0903
*END

*D_NET net_3302 9.2196
*CONN
*I TAUGATE_8:Z O
*I inst_521:B1 I
*I inst_528:B1 I
*I inst_522:B1 I
*I inst_527:B1 I
*I inst_520:B1 I
*I inst_516:B1 I
*I inst_526:B1 I
*I inst_524:B1 I
*CAP
1 TAUGATE_8:Z 0.4602
2 net_3302:1 0.2009
3 net_3302:2 0.3114
4 net_3302:3 0.3090
5 net_3302:4 0.3972
6 net_3302:5 0.4228
7 inst_521:B1 0.2443
8 net_3302:6 0.4436
9 inst_528:B1 0.1981
10 net_3302:7 0.2490
11 net_3302:8 0.0579
12 net_3302:9 0.0423
13 net_3302:10 0.2861
14 net_3302:11 0.4278
15 inst_522:B1 0.3875
16 net_3302:12 0.3666
17 net_3302:13 0.2854
18 net_3302:14 0.4464
19 net_3302:15 0.2438
20 net_3302:16 0.2969
21 inst_527:B1 0.3091
22 net_3302:17 0.4002
23 net_3302:18 0.3652
24 net_3302:19 0.1857
25 inst_520:B1 0.0562
26 net_3302:20 0.1026
27 net_3302:21 0.1939
28 inst_516:B1 0.1095
29 net_3302:22 0.4033
30 net_3302:23 0.3663
31 inst_526:B1 0.2540
32 net_3302:24 0.0863
33 inst_524:B1 0.3102
*RES
2 TAUGATE_8:Z net_3302:1 0.2458
3 net_3302:1 net_3302:2 0.3734
4 net_3302:2 net_3302:3 0.1567
5 net_3302:3 net_3302:4 0.1247
6 net_3302:4 net_3302:5 0.2439
7 net_3302:5 inst_521:B1 0.2588
8 net_3302:4 net_3302:6 0.3275
9 net_3302:6 inst_528:B1 0.0169
10 net_3302:6 net_3302:7 0.4796
11 net_3302:7 net_3302:8 0.3740
12 net_3302:8 net_3302:9 0.1554
13 net_3302:9 net_3302:10 0.0209
14 net_3302:10 net_3302:11 0.4380
15 net_3302:11 inst_522:B1 0.4130
16 net_3302:3 net_3302:12 0.5006
17 net_3302:12 net_3302:13 0.2264
18 net_3302:13 net_3302:14 0.3973
19 net_3302:14 net_3302:15 0.2044
20 net_3302:15 net_3302:16 0.1531
21 net_3302:16 inst_527:B1 0.3886
22 net_3302:8 net_3302:17 0.0882
23 net_3302:17 net_3302:18 0.4386
24 net_3302:18 net_3302:19 0.2715
25 net_3302:19 inst_520:B1 0.0199
26 net_3302:6 net_3302:20 0.0212
27 net_3302:20 net_3302:21 0.1417
28 net_3302:21 inst_516:B1 0.2190
29 net_3302:21 net_3302:22 0.0526
30 net_3302:22 net_3302:23 0.2388
31 net_3302:23 inst_526:B1 0.1787
32 net_3302:18 net_3302:24 0.1239
33 net_3302:24 inst_524:B1 0.2473
*END

