*SPEF "IEEE 1481-1998"
*DESIGN "changes"
*DATE "Tue Dec 02 20:33:18 2014"
*VENDOR "TAU 2015 Contest"
*PROGRAM "Benchmark Parasitic Generator"
*VERSION "0.0"
*DESIGN_FLOW "NETLIST_TYPE_VERILOG"
*DIVIDER /
*DELIMITER :
*BUS_DELIMITER [ ]
*T_UNIT 1 PS
*C_UNIT 1 FF
*R_UNIT 1 KOHM
*L_UNIT 1 UH

*D_NET net_2714 5.2605
*CONN
*I inst_208:ZN O
*I inst_3807:B1 I
*I inst_3808:B1 I
*I inst_191:A1 I
*I inst_2192:A I
*CAP
1 inst_208:ZN 0.2611
2 net_2714:1 0.4098
3 net_2714:2 0.5009
4 net_2714:3 0.2843
5 inst_3808:B1 0.2878
6 net_2714:4 0.4685
7 net_2714:5 0.3070
8 net_2714:6 0.3583
9 inst_3807:B1 0.1395
10 net_2714:7 0.4644
11 net_2714:8 0.4559
12 net_2714:9 0.4050
13 net_2714:10 0.0154
14 inst_191:A1 0.1670
15 net_2714:11 0.2909
16 net_2714:12 0.3706
17 inst_2192:A 0.0740
*RES
2 inst_208:ZN net_2714:1 0.1659
3 net_2714:1 net_2714:2 0.2742
4 net_2714:2 net_2714:3 0.3494
5 net_2714:3 inst_3808:B1 0.1485
6 net_2714:3 net_2714:4 0.0646
7 net_2714:4 net_2714:5 0.0794
8 net_2714:5 net_2714:6 0.2161
9 net_2714:6 inst_3807:B1 0.1614
10 net_2714:4 net_2714:7 0.1555
11 net_2714:7 net_2714:8 0.2440
12 net_2714:8 net_2714:9 0.0332
13 net_2714:9 net_2714:10 0.0406
14 net_2714:10 inst_191:A1 0.2732
15 net_2714:3 net_2714:11 0.4871
16 net_2714:11 net_2714:12 0.4951
17 net_2714:12 inst_2192:A 0.4125
*END

*D_NET net_742 2.0620
*CONN
*I inst_1846:ZN O
*I inst_214:A2 I
*I inst_2801:A I
*CAP
1 inst_1846:ZN 0.1285
2 net_742:1 0.2926
3 inst_214:A2 0.4507
4 net_742:2 0.0305
5 net_742:3 0.2383
6 net_742:4 0.4020
7 net_742:5 0.2529
8 inst_2801:A 0.2665
*RES
2 inst_1846:ZN net_742:1 0.3356
3 net_742:1 inst_214:A2 0.3995
4 net_742:1 net_742:2 0.4354
5 net_742:2 net_742:3 0.1977
6 net_742:3 net_742:4 0.0788
7 net_742:4 net_742:5 0.3276
8 net_742:5 inst_2801:A 0.3833
*END

*D_NET TAUNET_4173 4.0085
*CONN
*I TAUGATE_3582:Z O
*I TAUGATE_4173:A I
*I inst_158:A4 I
*I inst_4107:A2 I
*I inst_2869:A I
*CAP
1 TAUGATE_3582:Z 0.0716
2 TAUNET_4173:1 0.1922
3 TAUNET_4173:2 0.2805
4 TAUNET_4173:3 0.1322
5 inst_4107:A2 0.1905
6 TAUNET_4173:4 0.2211
7 TAUNET_4173:5 0.1955
8 TAUNET_4173:6 0.1868
9 TAUNET_4173:7 0.4889
10 inst_158:A4 0.0703
11 TAUNET_4173:8 0.3990
12 TAUGATE_4173:A 0.4035
13 TAUNET_4173:9 0.3196
14 TAUNET_4173:10 0.4976
15 inst_2869:A 0.3591
*RES
2 TAUGATE_3582:Z TAUNET_4173:1 0.4017
3 TAUNET_4173:1 TAUNET_4173:2 0.4680
4 TAUNET_4173:2 TAUNET_4173:3 0.2976
5 TAUNET_4173:3 inst_4107:A2 0.2331
6 TAUNET_4173:2 TAUNET_4173:4 0.3298
7 TAUNET_4173:4 TAUNET_4173:5 0.4131
8 TAUNET_4173:5 TAUNET_4173:6 0.3310
9 TAUNET_4173:6 TAUNET_4173:7 0.2621
10 TAUNET_4173:7 inst_158:A4 0.4792
11 TAUNET_4173:3 TAUNET_4173:8 0.0219
12 TAUNET_4173:8 TAUGATE_4173:A 0.0830
13 TAUNET_4173:8 TAUNET_4173:9 0.2780
14 TAUNET_4173:9 TAUNET_4173:10 0.2022
15 TAUNET_4173:10 inst_2869:A 0.1593
*END

*D_NET net_741 2.3519
*CONN
*I inst_3988:ZN O
*I inst_4208:A2 I
*CAP
1 inst_3988:ZN 0.3498
2 net_741:1 0.4519
3 net_741:2 0.4658
4 net_741:3 0.3690
5 net_741:4 0.4019
6 net_741:5 0.0632
7 inst_4208:A2 0.2503
*RES
2 inst_3988:ZN net_741:1 0.4700
3 net_741:1 net_741:2 0.3789
4 net_741:2 net_741:3 0.3545
5 net_741:3 net_741:4 0.1033
6 net_741:4 net_741:5 0.4316
7 net_741:5 inst_4208:A2 0.1782
*END

*D_NET net_3128 5.1987
*CONN
*I inst_3149:QN O
*I inst_2424:A I
*I inst_1981:A1 I
*I inst_1094:A2 I
*I inst_3491:A2 I
*I inst_4182:A1 I
*CAP
1 inst_3149:QN 0.0376
2 net_3128:1 0.3594
3 inst_4182:A1 0.0525
4 net_3128:2 0.2980
5 net_3128:3 0.2454
6 net_3128:4 0.4670
7 net_3128:5 0.1921
8 inst_1981:A1 0.1376
9 net_3128:6 0.4004
10 net_3128:7 0.4814
11 net_3128:8 0.1341
12 net_3128:9 0.3915
13 net_3128:10 0.0282
14 inst_1094:A2 0.3089
15 net_3128:11 0.0666
16 net_3128:12 0.3854
17 net_3128:13 0.3580
18 inst_3491:A2 0.3774
19 net_3128:14 0.0112
20 net_3128:15 0.3530
21 inst_2424:A 0.1128
*RES
2 inst_3149:QN net_3128:1 0.3248
3 net_3128:1 inst_4182:A1 0.2597
4 net_3128:1 net_3128:2 0.4443
5 net_3128:2 net_3128:3 0.1288
6 net_3128:3 net_3128:4 0.3022
7 net_3128:4 net_3128:5 0.1405
8 net_3128:5 inst_1981:A1 0.0668
9 net_3128:4 net_3128:6 0.0253
10 net_3128:6 net_3128:7 0.3105
11 net_3128:7 net_3128:8 0.1881
12 net_3128:8 net_3128:9 0.2034
13 net_3128:9 net_3128:10 0.1592
14 net_3128:10 inst_1094:A2 0.3147
15 net_3128:8 net_3128:11 0.2731
16 net_3128:11 net_3128:12 0.1525
17 net_3128:12 net_3128:13 0.0518
18 net_3128:13 inst_3491:A2 0.2548
19 net_3128:4 net_3128:14 0.2239
20 net_3128:14 net_3128:15 0.0917
21 net_3128:15 inst_2424:A 0.4230
*END

