*SPEF "IEEE 1481-1998"
*DESIGN "changes"
*DATE "Tue Dec 02 20:32:59 2014"
*VENDOR "TAU 2015 Contest"
*PROGRAM "Benchmark Parasitic Generator"
*VERSION "0.0"
*DESIGN_FLOW "NETLIST_TYPE_VERILOG"
*DIVIDER /
*DELIMITER :
*BUS_DELIMITER [ ]
*T_UNIT 1 PS
*C_UNIT 1 FF
*R_UNIT 1 KOHM
*L_UNIT 1 UH

*D_NET net_4011 5.2605
*CONN
*I TAUGATE_1:Z O
*I inst_1930:A2 I
*I inst_2083:A2 I
*I inst_3654:B2 I
*I inst_3551:A2 I
*CAP
1 TAUGATE_1:Z 0.2611
2 net_4011:1 0.4098
3 net_4011:2 0.5009
4 net_4011:3 0.2843
5 inst_2083:A2 0.2878
6 net_4011:4 0.4685
7 net_4011:5 0.3070
8 net_4011:6 0.3583
9 inst_1930:A2 0.1395
10 net_4011:7 0.4644
11 net_4011:8 0.4559
12 net_4011:9 0.4050
13 net_4011:10 0.0154
14 inst_3654:B2 0.1670
15 net_4011:11 0.2909
16 net_4011:12 0.3706
17 inst_3551:A2 0.0740
*RES
2 TAUGATE_1:Z net_4011:1 0.1659
3 net_4011:1 net_4011:2 0.2742
4 net_4011:2 net_4011:3 0.3494
5 net_4011:3 inst_2083:A2 0.1485
6 net_4011:3 net_4011:4 0.0646
7 net_4011:4 net_4011:5 0.0794
8 net_4011:5 net_4011:6 0.2161
9 net_4011:6 inst_1930:A2 0.1614
10 net_4011:4 net_4011:7 0.1555
11 net_4011:7 net_4011:8 0.2440
12 net_4011:8 net_4011:9 0.0332
13 net_4011:9 net_4011:10 0.0406
14 net_4011:10 inst_3654:B2 0.2732
15 net_4011:3 net_4011:11 0.4871
16 net_4011:11 net_4011:12 0.4951
17 net_4011:12 inst_3551:A2 0.4125
*END

*D_NET TAUNET_1 0.8718
*CONN
*I inst_3425:Q O
*I TAUGATE_1:A I
*CAP
1 inst_3425:Q 0.1285
2 TAUNET_1:1 0.2926
3 TAUGATE_1:A 0.4507
*RES
2 inst_3425:Q TAUNET_1:1 0.3356
3 TAUNET_1:1 TAUGATE_1:A 0.3995
*END

