*SPEF "IEEE 1481-1998"
*DESIGN "changes"
*DATE "Tue Dec 02 20:33:19 2014"
*VENDOR "TAU 2015 Contest"
*PROGRAM "Benchmark Parasitic Generator"
*VERSION "0.0"
*DESIGN_FLOW "NETLIST_TYPE_VERILOG"
*DIVIDER /
*DELIMITER :
*BUS_DELIMITER [ ]
*T_UNIT 1 PS
*C_UNIT 1 FF
*R_UNIT 1 KOHM
*L_UNIT 1 UH

*D_NET net_2704 3.0173
*CONN
*I inst_2667:ZN O
*I inst_784:C1 I
*I inst_791:C2 I
*CAP
1 inst_2667:ZN 0.2611
2 net_2704:1 0.4098
3 net_2704:2 0.5009
4 net_2704:3 0.2843
5 inst_784:C1 0.2878
6 net_2704:4 0.4685
7 net_2704:5 0.3070
8 net_2704:6 0.3583
9 inst_791:C2 0.1395
*RES
2 inst_2667:ZN net_2704:1 0.1659
3 net_2704:1 net_2704:2 0.2742
4 net_2704:2 net_2704:3 0.3494
5 net_2704:3 inst_784:C1 0.1485
6 net_2704:3 net_2704:4 0.0646
7 net_2704:4 net_2704:5 0.0794
8 net_2704:5 net_2704:6 0.2161
9 net_2704:6 inst_791:C2 0.1614
*END

*D_NET net_621 1.8183
*CONN
*I inst_438:ZN O
*I inst_3639:A2 I
*CAP
1 inst_438:ZN 0.3755
2 net_621:1 0.4559
3 net_621:2 0.4050
4 net_621:3 0.0154
5 net_621:4 0.1670
6 net_621:5 0.1555
7 inst_3639:A2 0.2440
*RES
2 inst_438:ZN net_621:1 0.0332
3 net_621:1 net_621:2 0.0406
4 net_621:2 net_621:3 0.2732
5 net_621:3 net_621:4 0.0073
6 net_621:4 net_621:5 0.1308
7 net_621:5 inst_3639:A2 0.1374
*END

*D_NET net_2193 1.3529
*CONN
*I inst_56:ZN O
*I inst_279:A1 I
*CAP
1 inst_56:ZN 0.3706
2 net_2193:1 0.4871
3 inst_279:A1 0.4951
*RES
2 inst_56:ZN net_2193:1 0.4125
3 net_2193:1 inst_279:A1 0.0565
*END

*D_NET TAUNET_2057 3.1585
*CONN
*I TAUGATE_1050:Z O
*I TAUGATE_2057:A I
*I inst_4034:A I
*CAP
1 TAUGATE_1050:Z 0.0292
2 TAUNET_2057:1 0.4507
3 TAUNET_2057:2 0.3356
4 TAUNET_2057:3 0.3995
5 TAUGATE_2057:A 0.3845
6 TAUNET_2057:4 0.2529
7 TAUNET_2057:5 0.2665
8 TAUNET_2057:6 0.4354
9 TAUNET_2057:7 0.1977
10 TAUNET_2057:8 0.0788
11 inst_4034:A 0.3276
*RES
2 TAUGATE_1050:Z TAUNET_2057:1 0.4708
3 TAUNET_2057:1 TAUNET_2057:2 0.3056
4 TAUNET_2057:2 TAUNET_2057:3 0.3464
5 TAUNET_2057:3 TAUGATE_2057:A 0.0305
6 TAUNET_2057:2 TAUNET_2057:4 0.3833
7 TAUNET_2057:4 TAUNET_2057:5 0.3292
8 TAUNET_2057:5 TAUNET_2057:6 0.0716
9 TAUNET_2057:6 TAUNET_2057:7 0.2236
10 TAUNET_2057:7 TAUNET_2057:8 0.1922
11 TAUNET_2057:8 inst_4034:A 0.2805
*END

*D_NET net_3710 2.0973
*CONN
*I inst_756:ZN O
*I inst_3357:D I
*CAP
1 inst_756:ZN 0.1905
2 net_3710:1 0.4680
3 net_3710:2 0.2976
4 net_3710:3 0.2331
5 net_3710:4 0.2927
6 net_3710:5 0.3943
7 inst_3357:D 0.2211
*RES
2 inst_756:ZN net_3710:1 0.1955
3 net_3710:1 net_3710:2 0.1868
4 net_3710:2 net_3710:3 0.4889
5 net_3710:3 net_3710:4 0.0703
6 net_3710:4 net_3710:5 0.3298
7 net_3710:5 inst_3357:D 0.4131
*END

*D_NET net_4065 3.3358
*CONN
*I inst_4136:ZN O
*I inst_3771:A1 I
*I inst_3781:C1 I
*I inst_4016:C1 I
*CAP
1 inst_4136:ZN 0.2621
2 net_4065:1 0.1808
3 net_4065:2 0.0717
4 net_4065:3 0.3990
5 net_4065:4 0.4035
6 net_4065:5 0.0219
7 inst_3781:C1 0.0830
8 net_4065:6 0.4382
9 net_4065:7 0.3498
10 inst_3771:A1 0.4055
11 net_4065:8 0.2503
12 inst_4016:C1 0.4700
*RES
2 inst_4136:ZN net_4065:1 0.4539
3 net_4065:1 net_4065:2 0.1250
4 net_4065:2 net_4065:3 0.3196
5 net_4065:3 net_4065:4 0.4976
6 net_4065:4 net_4065:5 0.3591
7 net_4065:5 inst_3781:C1 0.2780
8 net_4065:2 net_4065:6 0.4519
9 net_4065:6 net_4065:7 0.4658
10 net_4065:7 inst_3771:A1 0.3690
11 net_4065:7 net_4065:8 0.3789
12 net_4065:8 inst_4016:C1 0.3545
*END

*D_NET net_1317 1.0398
*CONN
*I inst_1303:ZN O
*I inst_659:B2 I
*CAP
1 inst_1303:ZN 0.4316
2 net_1317:1 0.4734
3 net_1317:2 0.0376
4 inst_659:B2 0.0972
*RES
2 inst_1303:ZN net_1317:1 0.3594
3 net_1317:1 net_1317:2 0.0525
4 net_1317:2 inst_659:B2 0.3248
*END

*D_NET net_2570 1.7532
*CONN
*I inst_2107:Z O
*I inst_3140:D I
*CAP
1 inst_2107:Z 0.1267
2 net_2570:1 0.2434
3 net_2570:2 0.3726
4 net_2570:3 0.2980
5 net_2570:4 0.2454
6 inst_3140:D 0.4670
*RES
2 inst_2107:Z net_2570:1 0.1921
3 net_2570:1 net_2570:2 0.1376
4 net_2570:2 net_2570:3 0.4443
5 net_2570:3 net_2570:4 0.1288
6 net_2570:4 inst_3140:D 0.3022
*END

*D_NET TAUNET_1617 7.2535
*CONN
*I inst_3146:QN O
*I TAUGATE_1617:A I
*I inst_1116:A2 I
*I inst_598:B2 I
*I inst_1284:A3 I
*I inst_4176:A1 I
*I inst_1905:A2 I
*CAP
1 inst_3146:QN 0.0668
2 TAUNET_1617:1 0.4131
3 TAUNET_1617:2 0.4004
4 TAUNET_1617:3 0.4814
5 TAUNET_1617:4 0.1341
6 inst_1116:A2 0.3915
7 TAUNET_1617:5 0.3147
8 TAUNET_1617:6 0.2761
9 TAUGATE_1617:A 0.3643
10 TAUNET_1617:7 0.2731
11 TAUNET_1617:8 0.1525
12 TAUNET_1617:9 0.0518
13 TAUNET_1617:10 0.2548
14 inst_598:B2 0.2154
15 TAUNET_1617:11 0.0917
16 TAUNET_1617:12 0.4230
17 TAUNET_1617:13 0.1494
18 inst_1284:A3 0.3290
19 TAUNET_1617:14 0.0801
20 TAUNET_1617:15 0.1392
21 TAUNET_1617:16 0.1891
22 TAUNET_1617:17 0.0464
23 inst_4176:A1 0.0364
24 TAUNET_1617:18 0.1076
25 TAUNET_1617:19 0.4606
26 TAUNET_1617:20 0.3388
27 TAUNET_1617:21 0.4657
28 TAUNET_1617:22 0.3595
29 inst_1905:A2 0.2471
*RES
2 inst_3146:QN TAUNET_1617:1 0.0282
3 TAUNET_1617:1 TAUNET_1617:2 0.3089
4 TAUNET_1617:2 TAUNET_1617:3 0.0253
5 TAUNET_1617:3 TAUNET_1617:4 0.3105
6 TAUNET_1617:4 inst_1116:A2 0.1881
7 TAUNET_1617:2 TAUNET_1617:5 0.2288
8 TAUNET_1617:5 TAUNET_1617:6 0.0666
9 TAUNET_1617:6 TAUGATE_1617:A 0.3854
10 TAUNET_1617:5 TAUNET_1617:7 0.4921
11 TAUNET_1617:7 TAUNET_1617:8 0.1648
12 TAUNET_1617:8 TAUNET_1617:9 0.1855
13 TAUNET_1617:9 TAUNET_1617:10 0.0112
14 TAUNET_1617:10 inst_598:B2 0.3530
15 TAUNET_1617:3 TAUNET_1617:11 0.1620
16 TAUNET_1617:11 TAUNET_1617:12 0.0029
17 TAUNET_1617:12 TAUNET_1617:13 0.2883
18 TAUNET_1617:13 inst_1284:A3 0.1903
19 TAUNET_1617:12 TAUNET_1617:14 0.0279
20 TAUNET_1617:14 TAUNET_1617:15 0.4104
21 TAUNET_1617:15 TAUNET_1617:16 0.0649
22 TAUNET_1617:16 TAUNET_1617:17 0.0510
23 TAUNET_1617:17 inst_4176:A1 0.1600
24 TAUNET_1617:6 TAUNET_1617:18 0.0832
25 TAUNET_1617:18 TAUNET_1617:19 0.0580
26 TAUNET_1617:19 TAUNET_1617:20 0.3736
27 TAUNET_1617:20 TAUNET_1617:21 0.0395
28 TAUNET_1617:21 TAUNET_1617:22 0.3644
29 TAUNET_1617:22 inst_1905:A2 0.0829
*END

*D_NET net_1642 4.5145
*CONN
*I inst_325:ZN O
*I inst_4124:A2 I
*I inst_646:B2 I
*I inst_9:B I
*CAP
1 inst_325:ZN 0.4694
2 net_1642:1 0.3882
3 net_1642:2 0.4950
4 net_1642:3 0.0413
5 net_1642:4 0.4651
6 inst_646:B2 0.4065
7 net_1642:5 0.2482
8 net_1642:6 0.2195
9 net_1642:7 0.1533
10 net_1642:8 0.4091
11 net_1642:9 0.2613
12 inst_4124:A2 0.3587
13 net_1642:10 0.0283
14 net_1642:11 0.2763
15 inst_9:B 0.2945
*RES
2 inst_325:ZN net_1642:1 0.3164
3 net_1642:1 net_1642:2 0.3513
4 net_1642:2 net_1642:3 0.1165
5 net_1642:3 net_1642:4 0.0986
6 net_1642:4 inst_646:B2 0.2243
7 net_1642:1 net_1642:5 0.1869
8 net_1642:5 net_1642:6 0.4974
9 net_1642:6 net_1642:7 0.3047
10 net_1642:7 net_1642:8 0.1200
11 net_1642:8 net_1642:9 0.4969
12 net_1642:9 inst_4124:A2 0.1210
13 net_1642:4 net_1642:10 0.3177
14 net_1642:10 net_1642:11 0.2101
15 net_1642:11 inst_9:B 0.3390
*END

*D_NET net_1244 4.7436
*CONN
*I inst_2309:ZN O
*I inst_3795:C1 I
*I inst_3736:C1 I
*I inst_3897:B1 I
*I inst_3620:B1 I
*CAP
1 inst_2309:ZN 0.3404
2 net_1244:1 0.3617
3 net_1244:2 0.0856
4 inst_3736:C1 0.3629
5 net_1244:3 0.1079
6 net_1244:4 0.3323
7 net_1244:5 0.2907
8 net_1244:6 0.0362
9 inst_3795:C1 0.4966
10 net_1244:7 0.4602
11 inst_3897:B1 0.4262
12 net_1244:8 0.4228
13 net_1244:9 0.2443
14 net_1244:10 0.2458
15 net_1244:11 0.3734
16 inst_3620:B1 0.1567
*RES
2 inst_2309:ZN net_1244:1 0.2821
3 net_1244:1 net_1244:2 0.3900
4 net_1244:2 inst_3736:C1 0.0557
5 net_1244:2 net_1244:3 0.4101
6 net_1244:3 net_1244:4 0.2702
7 net_1244:4 net_1244:5 0.2135
8 net_1244:5 net_1244:6 0.0419
9 net_1244:6 inst_3795:C1 0.2773
10 net_1244:1 net_1244:7 0.2009
11 net_1244:7 inst_3897:B1 0.3114
12 net_1244:5 net_1244:8 0.1247
13 net_1244:8 net_1244:9 0.2439
14 net_1244:9 net_1244:10 0.2588
15 net_1244:10 net_1244:11 0.4474
16 net_1244:11 inst_3620:B1 0.3528
*END

*D_NET net_3915 3.0460
*CONN
*I inst_4005:ZN O
*I inst_2057:A1 I
*I inst_4022:C2 I
*CAP
1 inst_4005:ZN 0.4436
2 net_3915:1 0.3275
3 net_3915:2 0.0169
4 inst_2057:A1 0.4026
5 net_3915:3 0.3875
6 net_3915:4 0.4796
7 net_3915:5 0.3740
8 net_3915:6 0.1554
9 net_3915:7 0.0209
10 inst_4022:C2 0.4380
*RES
2 inst_4005:ZN net_3915:1 0.4684
3 net_3915:1 net_3915:2 0.2490
4 net_3915:2 inst_2057:A1 0.0579
5 net_3915:2 net_3915:3 0.4130
6 net_3915:3 net_3915:4 0.4990
7 net_3915:4 net_3915:5 0.2134
8 net_3915:5 net_3915:6 0.1115
9 net_3915:6 net_3915:7 0.4947
10 net_3915:7 inst_4022:C2 0.3666
*END

*D_NET TAUNET_2874 2.7868
*CONN
*I TAUGATE_157:Z O
*I TAUGATE_2874:A I
*I inst_4005:B1 I
*CAP
1 TAUGATE_157:Z 0.4464
2 TAUNET_2874:1 0.2969
3 TAUNET_2874:2 0.3091
4 TAUNET_2874:3 0.5006
5 inst_4005:B1 0.2264
6 TAUNET_2874:4 0.4002
7 TAUNET_2874:5 0.3652
8 TAUNET_2874:6 0.1857
9 TAUGATE_2874:A 0.0562
*RES
2 TAUGATE_157:Z TAUNET_2874:1 0.3973
3 TAUNET_2874:1 TAUNET_2874:2 0.2044
4 TAUNET_2874:2 TAUNET_2874:3 0.1531
5 TAUNET_2874:3 inst_4005:B1 0.3886
6 TAUNET_2874:2 TAUNET_2874:4 0.0882
7 TAUNET_2874:4 TAUNET_2874:5 0.4386
8 TAUNET_2874:5 TAUNET_2874:6 0.2715
9 TAUNET_2874:6 TAUGATE_2874:A 0.0199
*END

*D_NET net_2104 0.5520
*CONN
*I inst_1659:ZN O
*I inst_2048:A2 I
*CAP
1 inst_1659:ZN 0.1459
2 net_2104:1 0.1026
3 net_2104:2 0.1939
4 inst_2048:A2 0.1095
*RES
2 inst_1659:ZN net_2104:1 0.0212
3 net_2104:1 net_2104:2 0.1417
4 net_2104:2 inst_2048:A2 0.2190
*END

*D_NET TAUNET_2324 1.5644
*CONN
*I TAUGATE_1385:Z O
*I TAUGATE_2324:A I
*CAP
1 TAUGATE_1385:Z 0.1138
2 TAUNET_2324:1 0.3663
3 TAUNET_2324:2 0.2540
4 TAUNET_2324:3 0.0526
5 TAUNET_2324:4 0.2388
6 TAUNET_2324:5 0.1787
7 TAUGATE_2324:A 0.3603
*RES
2 TAUGATE_1385:Z TAUNET_2324:1 0.0603
3 TAUNET_2324:1 TAUNET_2324:2 0.0863
4 TAUNET_2324:2 TAUNET_2324:3 0.3102
5 TAUNET_2324:3 TAUNET_2324:4 0.1239
6 TAUNET_2324:4 TAUNET_2324:5 0.2473
7 TAUNET_2324:5 TAUGATE_2324:A 0.0055
*END

*D_NET net_1358 1.2459
*CONN
*I inst_833:ZN O
*I inst_3420:D I
*CAP
1 inst_833:ZN 0.2412
2 net_1358:1 0.4441
3 net_1358:2 0.4218
4 net_1358:3 0.0848
5 net_1358:4 0.0266
6 inst_3420:D 0.0274
*RES
2 inst_833:ZN net_1358:1 0.4218
3 net_1358:1 net_1358:2 0.2061
4 net_1358:2 net_1358:3 0.2110
5 net_1358:3 net_1358:4 0.4583
6 net_1358:4 inst_3420:D 0.3985
*END

*D_NET net_129 1.9898
*CONN
*I inst_2973:ZN O
*I inst_928:A2 I
*CAP
1 inst_2973:ZN 0.0725
2 net_129:1 0.3124
3 net_129:2 0.3685
4 net_129:3 0.4317
5 net_129:4 0.1801
6 net_129:5 0.2826
7 inst_928:A2 0.3420
*RES
2 inst_2973:ZN net_129:1 0.0965
3 net_129:1 net_129:2 0.2555
4 net_129:2 net_129:3 0.1304
5 net_129:3 net_129:4 0.3675
6 net_129:4 net_129:5 0.4634
7 net_129:5 inst_928:A2 0.2869
*END

*D_NET net_1841 1.0783
*CONN
*I inst_662:ZN O
*I inst_3776:A1 I
*I inst_3774:A1 I
*CAP
1 inst_662:ZN 0.1182
2 net_1841:1 0.0608
3 inst_3776:A1 0.3721
4 net_1841:2 0.0264
5 net_1841:3 0.2502
6 inst_3774:A1 0.2506
*RES
2 inst_662:ZN net_1841:1 0.4648
3 net_1841:1 inst_3776:A1 0.2376
4 net_1841:1 net_1841:2 0.4486
5 net_1841:2 net_1841:3 0.0641
6 net_1841:3 inst_3774:A1 0.0138
*END

*D_NET net_1897 0.7959
*CONN
*I inst_2675:ZN O
*I inst_3384:D I
*CAP
1 inst_2675:ZN 0.0204
2 net_1897:1 0.1001
3 net_1897:2 0.2747
4 net_1897:3 0.1704
5 inst_3384:D 0.2303
*RES
2 inst_2675:ZN net_1897:1 0.0121
3 net_1897:1 net_1897:2 0.0620
4 net_1897:2 net_1897:3 0.0267
5 net_1897:3 inst_3384:D 0.1278
*END

*D_NET net_3069 1.5058
*CONN
*I inst_3228:QN O
*I inst_2474:A I
*CAP
1 inst_3228:QN 0.3621
2 net_3069:1 0.3490
3 net_3069:2 0.4751
4 inst_2474:A 0.3195
*RES
2 inst_3228:QN net_3069:1 0.4748
3 net_3069:1 net_3069:2 0.2505
4 net_3069:2 inst_2474:A 0.2036
*END

*D_NET net_3668 1.2849
*CONN
*I inst_2588:ZN O
*I inst_975:A1 I
*CAP
1 inst_2588:ZN 0.0185
2 net_3668:1 0.2437
3 net_3668:2 0.3641
4 net_3668:3 0.1411
5 net_3668:4 0.2452
6 inst_975:A1 0.2723
*RES
2 inst_2588:ZN net_3668:1 0.2079
3 net_3668:1 net_3668:2 0.2449
4 net_3668:2 net_3668:3 0.0406
5 net_3668:3 net_3668:4 0.0917
6 net_3668:4 inst_975:A1 0.0078
*END

*D_NET net_3498 0.3723
*CONN
*I inst_1383:ZN O
*I inst_1405:A1 I
*CAP
1 inst_1383:ZN 0.0264
2 net_3498:1 0.1906
3 inst_1405:A1 0.1553
*RES
2 inst_1383:ZN net_3498:1 0.0937
3 net_3498:1 inst_1405:A1 0.2944
*END

*D_NET TAUNET_103 3.3828
*CONN
*I TAUGATE_2932:Z O
*I TAUGATE_103:A I
*I inst_4052:A2 I
*I inst_879:A3 I
*CAP
1 TAUGATE_2932:Z 0.0209
2 TAUNET_103:1 0.1067
3 TAUNET_103:2 0.4881
4 inst_879:A3 0.3672
5 TAUNET_103:3 0.2979
6 TAUNET_103:4 0.3428
7 TAUNET_103:5 0.2325
8 TAUNET_103:6 0.2733
9 TAUNET_103:7 0.1266
10 inst_4052:A2 0.3814
11 TAUNET_103:8 0.4527
12 TAUNET_103:9 0.1465
13 TAUGATE_103:A 0.1463
*RES
2 TAUGATE_2932:Z TAUNET_103:1 0.4629
3 TAUNET_103:1 TAUNET_103:2 0.1157
4 TAUNET_103:2 inst_879:A3 0.1901
5 TAUNET_103:1 TAUNET_103:3 0.1363
6 TAUNET_103:3 TAUNET_103:4 0.3277
7 TAUNET_103:4 TAUNET_103:5 0.3144
8 TAUNET_103:5 TAUNET_103:6 0.4503
9 TAUNET_103:6 TAUNET_103:7 0.3676
10 TAUNET_103:7 inst_4052:A2 0.1603
11 TAUNET_103:7 TAUNET_103:8 0.4621
12 TAUNET_103:8 TAUNET_103:9 0.4065
13 TAUNET_103:9 TAUGATE_103:A 0.0227
*END

*D_NET TAUNET_3011 0.7521
*CONN
*I TAUGATE_1359:Z O
*I TAUGATE_3011:A I
*CAP
1 TAUGATE_1359:Z 0.4114
2 TAUNET_3011:1 0.1546
3 TAUGATE_3011:A 0.1861
*RES
2 TAUGATE_1359:Z TAUNET_3011:1 0.4367
3 TAUNET_3011:1 TAUGATE_3011:A 0.3452
*END

*D_NET net_1321 0.3052
*CONN
*I inst_4067:ZN O
*I inst_877:A2 I
*CAP
1 inst_4067:ZN 0.1217
2 net_1321:1 0.1222
3 inst_877:A2 0.0613
*RES
2 inst_4067:ZN net_1321:1 0.1692
3 net_1321:1 inst_877:A2 0.4407
*END

*D_NET net_1429 1.3881
*CONN
*I inst_3588:ZN O
*I inst_1192:A2 I
*CAP
1 inst_3588:ZN 0.2563
2 net_1429:1 0.2603
3 net_1429:2 0.2874
4 net_1429:3 0.3072
5 inst_1192:A2 0.2768
*RES
2 inst_3588:ZN net_1429:1 0.1679
3 net_1429:1 net_1429:2 0.2053
4 net_1429:2 net_1429:3 0.2140
5 net_1429:3 inst_1192:A2 0.3306
*END

*D_NET net_974 2.7572
*CONN
*I inst_1315:ZN O
*I inst_1792:A1 I
*I inst_285:A2 I
*CAP
1 inst_1315:ZN 0.2580
2 net_974:1 0.4796
3 net_974:2 0.3806
4 net_974:3 0.4946
5 inst_1792:A1 0.4608
6 net_974:4 0.4103
7 net_974:5 0.0845
8 inst_285:A2 0.1888
*RES
2 inst_1315:ZN net_974:1 0.4692
3 net_974:1 net_974:2 0.4766
4 net_974:2 net_974:3 0.0589
5 net_974:3 inst_1792:A1 0.0962
6 net_974:2 net_974:4 0.1436
7 net_974:4 net_974:5 0.1762
8 net_974:5 inst_285:A2 0.4748
*END

*D_NET net_3501 1.1069
*CONN
*I inst_4208:ZN O
*I inst_752:A I
*CAP
1 inst_4208:ZN 0.0407
2 net_3501:1 0.0491
3 net_3501:2 0.4137
4 net_3501:3 0.3046
5 inst_752:A 0.2987
*RES
2 inst_4208:ZN net_3501:1 0.2640
3 net_3501:1 net_3501:2 0.1831
4 net_3501:2 net_3501:3 0.4110
5 net_3501:3 inst_752:A 0.0191
*END

*D_NET net_2041 1.9101
*CONN
*I inst_3752:ZN O
*I inst_628:A I
*CAP
1 inst_3752:ZN 0.4300
2 net_2041:1 0.0787
3 net_2041:2 0.2007
4 net_2041:3 0.2971
5 net_2041:4 0.4025
6 inst_628:A 0.5010
*RES
2 inst_3752:ZN net_2041:1 0.3538
3 net_2041:1 net_2041:2 0.4649
4 net_2041:2 net_2041:3 0.0482
5 net_2041:3 net_2041:4 0.1062
6 net_2041:4 inst_628:A 0.2963
*END

*D_NET net_2468 1.3534
*CONN
*I inst_1554:ZN O
*I inst_579:A I
*CAP
1 inst_1554:ZN 0.2002
2 net_2468:1 0.3761
3 net_2468:2 0.0616
4 net_2468:3 0.4298
5 inst_579:A 0.2857
*RES
2 inst_1554:ZN net_2468:1 0.2634
3 net_2468:1 net_2468:2 0.0470
4 net_2468:2 net_2468:3 0.0745
5 net_2468:3 inst_579:A 0.1738
*END

*D_NET net_3996 2.2151
*CONN
*I inst_4116:ZN O
*I inst_3086:A I
*I inst_1272:A2 I
*CAP
1 inst_4116:ZN 0.4556
2 net_3996:1 0.0036
3 net_3996:2 0.1731
4 inst_1272:A2 0.2737
5 net_3996:3 0.3729
6 net_3996:4 0.0418
7 net_3996:5 0.3671
8 net_3996:6 0.3815
9 inst_3086:A 0.1458
*RES
2 inst_4116:ZN net_3996:1 0.3095
3 net_3996:1 net_3996:2 0.4895
4 net_3996:2 inst_1272:A2 0.4033
5 net_3996:2 net_3996:3 0.4915
6 net_3996:3 net_3996:4 0.0683
7 net_3996:4 net_3996:5 0.2135
8 net_3996:5 net_3996:6 0.4484
9 net_3996:6 inst_3086:A 0.1379
*END

*D_NET net_923 9.6819
*CONN
*I inst_2379:ZN O
*I inst_1065:A2 I
*I inst_3908:C2 I
*I inst_3914:C1 I
*I inst_766:B2 I
*I inst_2068:A1 I
*I inst_1859:A1 I
*I inst_4162:A2 I
*I inst_3987:B2 I
*I inst_4143:A2 I
*I inst_465:B2 I
*I inst_3988:B2 I
*CAP
1 inst_2379:ZN 0.0489
2 net_923:1 0.1477
3 inst_3914:C1 0.4806
4 net_923:2 0.2818
5 net_923:3 0.3290
6 inst_3908:C2 0.1592
7 net_923:4 0.0096
8 net_923:5 0.4963
9 inst_1065:A2 0.2377
10 net_923:6 0.3400
11 net_923:7 0.2352
12 net_923:8 0.3112
13 net_923:9 0.1345
14 inst_766:B2 0.4134
15 net_923:10 0.2343
16 net_923:11 0.1106
17 net_923:12 0.0283
18 inst_2068:A1 0.2644
19 net_923:13 0.2939
20 inst_1859:A1 0.2177
21 net_923:14 0.4154
22 net_923:15 0.4205
23 inst_4162:A2 0.1921
24 net_923:16 0.3943
25 net_923:17 0.0450
26 net_923:18 0.3586
27 inst_3987:B2 0.1804
28 net_923:19 0.0277
29 net_923:20 0.2232
30 net_923:21 0.0700
31 net_923:22 0.3825
32 inst_4143:A2 0.4916
33 net_923:23 0.2996
34 inst_465:B2 0.1500
35 net_923:24 0.2976
36 net_923:25 0.3531
37 net_923:26 0.0316
38 net_923:27 0.1823
39 net_923:28 0.0755
40 inst_3988:B2 0.3163
*RES
2 inst_2379:ZN net_923:1 0.3473
3 net_923:1 inst_3914:C1 0.1114
4 net_923:1 net_923:2 0.4236
5 net_923:2 net_923:3 0.3328
6 net_923:3 inst_3908:C2 0.1906
7 net_923:2 net_923:4 0.2571
8 net_923:4 net_923:5 0.3610
9 net_923:5 inst_1065:A2 0.0042
10 net_923:3 net_923:6 0.0741
11 net_923:6 net_923:7 0.4290
12 net_923:7 net_923:8 0.4891
13 net_923:8 net_923:9 0.0621
14 net_923:9 inst_766:B2 0.2122
15 net_923:2 net_923:10 0.3395
16 net_923:10 net_923:11 0.4160
17 net_923:11 net_923:12 0.1311
18 net_923:12 inst_2068:A1 0.1702
19 net_923:1 net_923:13 0.0520
20 net_923:13 inst_1859:A1 0.1787
21 net_923:6 net_923:14 0.3303
22 net_923:14 net_923:15 0.0500
23 net_923:15 inst_4162:A2 0.3450
24 net_923:8 net_923:16 0.2132
25 net_923:16 net_923:17 0.3448
26 net_923:17 net_923:18 0.2539
27 net_923:18 inst_3987:B2 0.0169
28 net_923:11 net_923:19 0.0258
29 net_923:19 net_923:20 0.0722
30 net_923:20 net_923:21 0.0268
31 net_923:21 net_923:22 0.0274
32 net_923:22 inst_4143:A2 0.0955
33 net_923:3 net_923:23 0.2720
34 net_923:23 inst_465:B2 0.0605
35 net_923:7 net_923:24 0.3515
36 net_923:24 net_923:25 0.2983
37 net_923:25 net_923:26 0.4269
38 net_923:26 net_923:27 0.0493
39 net_923:27 net_923:28 0.0341
40 net_923:28 inst_3988:B2 0.3020
*END

*D_NET net_826 3.9543
*CONN
*I inst_1900:ZN O
*I inst_904:A1 I
*I inst_1168:A1 I
*I inst_3792:B2 I
*I inst_2389:A I
*CAP
1 inst_1900:ZN 0.4000
2 net_826:1 0.4709
3 inst_3792:B2 0.4204
4 net_826:2 0.2956
5 net_826:3 0.2210
6 inst_1168:A1 0.0970
7 net_826:4 0.2047
8 inst_904:A1 0.3729
9 net_826:5 0.3083
10 net_826:6 0.1250
11 net_826:7 0.3526
12 net_826:8 0.3715
13 inst_2389:A 0.3144
*RES
2 inst_1900:ZN net_826:1 0.0122
3 net_826:1 inst_3792:B2 0.2688
4 net_826:1 net_826:2 0.2798
5 net_826:2 net_826:3 0.3150
6 net_826:3 inst_1168:A1 0.0137
7 net_826:2 net_826:4 0.0610
8 net_826:4 inst_904:A1 0.4010
9 net_826:3 net_826:5 0.3618
10 net_826:5 net_826:6 0.0820
11 net_826:6 net_826:7 0.2174
12 net_826:7 net_826:8 0.3638
13 net_826:8 inst_2389:A 0.4097
*END

*D_NET net_1209 1.8560
*CONN
*I inst_3899:ZN O
*I inst_4044:A3 I
*CAP
1 inst_3899:ZN 0.4080
2 net_1209:1 0.4981
3 net_1209:2 0.3134
4 net_1209:3 0.4059
5 net_1209:4 0.1396
6 inst_4044:A3 0.0910
*RES
2 inst_3899:ZN net_1209:1 0.1278
3 net_1209:1 net_1209:2 0.3093
4 net_1209:2 net_1209:3 0.3342
5 net_1209:3 net_1209:4 0.2150
6 net_1209:4 inst_4044:A3 0.0109
*END

*D_NET net_1393 7.9505
*CONN
*I inst_2261:ZN O
*I inst_3890:C2 I
*I inst_3889:C2 I
*I inst_3896:B1 I
*I inst_3895:B1 I
*I inst_3893:B1 I
*I inst_3894:B1 I
*I inst_3892:B1 I
*CAP
1 inst_2261:ZN 0.2298
2 net_1393:1 0.0044
3 inst_3896:B1 0.1986
4 net_1393:2 0.2677
5 net_1393:3 0.2426
6 net_1393:4 0.1466
7 net_1393:5 0.2784
8 net_1393:6 0.2008
9 inst_3889:C2 0.3776
10 net_1393:7 0.3242
11 net_1393:8 0.2336
12 net_1393:9 0.3863
13 net_1393:10 0.2365
14 inst_3890:C2 0.1037
15 net_1393:11 0.2417
16 net_1393:12 0.2444
17 net_1393:13 0.4262
18 net_1393:14 0.3737
19 net_1393:15 0.3015
20 inst_3895:B1 0.1830
21 net_1393:16 0.1111
22 net_1393:17 0.3711
23 net_1393:18 0.0512
24 inst_3893:B1 0.1351
25 net_1393:19 0.3234
26 net_1393:20 0.4610
27 inst_3894:B1 0.4832
28 net_1393:21 0.3738
29 net_1393:22 0.4556
30 inst_3892:B1 0.1835
*RES
2 inst_2261:ZN net_1393:1 0.0476
3 net_1393:1 inst_3896:B1 0.0521
4 net_1393:1 net_1393:2 0.2937
5 net_1393:2 net_1393:3 0.0093
6 net_1393:3 net_1393:4 0.2822
7 net_1393:4 net_1393:5 0.4311
8 net_1393:5 net_1393:6 0.0309
9 net_1393:6 inst_3889:C2 0.1138
10 net_1393:5 net_1393:7 0.3572
11 net_1393:7 net_1393:8 0.2211
12 net_1393:8 net_1393:9 0.2185
13 net_1393:9 net_1393:10 0.2266
14 net_1393:10 inst_3890:C2 0.2538
15 net_1393:2 net_1393:11 0.3035
16 net_1393:11 net_1393:12 0.4053
17 net_1393:12 net_1393:13 0.0863
18 net_1393:13 net_1393:14 0.2362
19 net_1393:14 net_1393:15 0.1365
20 net_1393:15 inst_3895:B1 0.0277
21 net_1393:14 net_1393:16 0.0984
22 net_1393:16 net_1393:17 0.0368
23 net_1393:17 net_1393:18 0.4376
24 net_1393:18 inst_3893:B1 0.1423
25 net_1393:5 net_1393:19 0.2776
26 net_1393:19 net_1393:20 0.3781
27 net_1393:20 inst_3894:B1 0.3766
28 net_1393:16 net_1393:21 0.0020
29 net_1393:21 net_1393:22 0.2614
30 net_1393:22 inst_3892:B1 0.3010
*END

*D_NET net_2743 1.0435
*CONN
*I inst_43:ZN O
*I inst_2177:A I
*CAP
1 inst_43:ZN 0.4372
2 net_2743:1 0.1153
3 net_2743:2 0.3810
4 inst_2177:A 0.1100
*RES
2 inst_43:ZN net_2743:1 0.1662
3 net_2743:1 net_2743:2 0.3178
4 net_2743:2 inst_2177:A 0.2541
*END

*D_NET TAUNET_2897 1.9983
*CONN
*I TAUGATE_3438:Z O
*I TAUGATE_2897:A I
*I inst_3534:A1 I
*CAP
1 TAUGATE_3438:Z 0.4625
2 TAUNET_2897:1 0.0981
3 TAUNET_2897:2 0.3461
4 TAUNET_2897:3 0.2382
5 TAUGATE_2897:A 0.4109
6 TAUNET_2897:4 0.2455
7 inst_3534:A1 0.1970
*RES
2 TAUGATE_3438:Z TAUNET_2897:1 0.0945
3 TAUNET_2897:1 TAUNET_2897:2 0.2326
4 TAUNET_2897:2 TAUNET_2897:3 0.0121
5 TAUNET_2897:3 TAUGATE_2897:A 0.2674
6 TAUNET_2897:2 TAUNET_2897:4 0.0138
7 TAUNET_2897:4 inst_3534:A1 0.4527
*END

*D_NET net_2181 2.5624
*CONN
*I inst_2863:ZN O
*I inst_4072:A2 I
*I inst_611:B2 I
*CAP
1 inst_2863:ZN 0.4392
2 net_2181:1 0.0368
3 net_2181:2 0.3283
4 net_2181:3 0.2266
5 net_2181:4 0.4199
6 net_2181:5 0.3736
7 inst_611:B2 0.3306
8 net_2181:6 0.0262
9 inst_4072:A2 0.3812
*RES
2 inst_2863:ZN net_2181:1 0.3042
3 net_2181:1 net_2181:2 0.1317
4 net_2181:2 net_2181:3 0.1481
5 net_2181:3 net_2181:4 0.2485
6 net_2181:4 net_2181:5 0.2201
7 net_2181:5 inst_611:B2 0.2966
8 net_2181:4 net_2181:6 0.0656
9 net_2181:6 inst_4072:A2 0.1550
*END

*D_NET net_999 1.3180
*CONN
*I inst_2756:ZN O
*I inst_4031:A I
*CAP
1 inst_2756:ZN 0.1418
2 net_999:1 0.3805
3 net_999:2 0.2523
4 net_999:3 0.0497
5 inst_4031:A 0.4938
*RES
2 inst_2756:ZN net_999:1 0.3913
3 net_999:1 net_999:2 0.2131
4 net_999:2 net_999:3 0.3201
5 net_999:3 inst_4031:A 0.0320
*END

*D_NET net_1505 2.6988
*CONN
*I inst_1032:ZN O
*I inst_453:B2 I
*I inst_2722:A I
*CAP
1 inst_1032:ZN 0.3378
2 net_1505:1 0.2454
3 net_1505:2 0.4527
4 net_1505:3 0.2663
5 net_1505:4 0.3641
6 net_1505:5 0.1740
7 inst_2722:A 0.2701
8 net_1505:6 0.0751
9 net_1505:7 0.1227
10 net_1505:8 0.0294
11 net_1505:9 0.0059
12 inst_453:B2 0.3552
*RES
2 inst_1032:ZN net_1505:1 0.3351
3 net_1505:1 net_1505:2 0.4105
4 net_1505:2 net_1505:3 0.3004
5 net_1505:3 net_1505:4 0.3665
6 net_1505:4 net_1505:5 0.1341
7 net_1505:5 inst_2722:A 0.0859
8 net_1505:2 net_1505:6 0.3839
9 net_1505:6 net_1505:7 0.1840
10 net_1505:7 net_1505:8 0.4010
11 net_1505:8 net_1505:9 0.3573
12 net_1505:9 inst_453:B2 0.4559
*END

*D_NET net_1805 1.8802
*CONN
*I inst_1006:ZN O
*I inst_3386:D I
*CAP
1 inst_1006:ZN 0.1715
2 net_1805:1 0.3594
3 net_1805:2 0.4902
4 net_1805:3 0.4716
5 net_1805:4 0.2112
6 inst_3386:D 0.1762
*RES
2 inst_1006:ZN net_1805:1 0.1166
3 net_1805:1 net_1805:2 0.1660
4 net_1805:2 net_1805:3 0.2177
5 net_1805:3 net_1805:4 0.2908
6 net_1805:4 inst_3386:D 0.3318
*END

*D_NET TAUNET_2269 6.6234
*CONN
*I TAUGATE_2036:Z O
*I TAUGATE_2269:A I
*I inst_3868:B2 I
*I inst_3764:C1 I
*I inst_3467:B2 I
*I inst_3857:C2 I
*CAP
1 TAUGATE_2036:Z 0.4080
2 TAUNET_2269:1 0.1932
3 TAUNET_2269:2 0.0675
4 TAUNET_2269:3 0.0053
5 TAUNET_2269:4 0.1459
6 TAUNET_2269:5 0.0437
7 inst_3467:B2 0.4598
8 TAUNET_2269:6 0.4518
9 TAUNET_2269:7 0.0570
10 TAUNET_2269:8 0.4909
11 TAUNET_2269:9 0.0572
12 TAUNET_2269:10 0.5008
13 inst_3868:B2 0.1013
14 TAUNET_2269:11 0.2848
15 TAUNET_2269:12 0.2246
16 TAUNET_2269:13 0.3320
17 inst_3764:C1 0.3870
18 TAUNET_2269:14 0.1873
19 TAUNET_2269:15 0.1599
20 TAUNET_2269:16 0.3589
21 TAUGATE_2269:A 0.4697
22 TAUNET_2269:17 0.2921
23 TAUNET_2269:18 0.4162
24 TAUNET_2269:19 0.1285
25 TAUNET_2269:20 0.0491
26 inst_3857:C2 0.3511
*RES
2 TAUGATE_2036:Z TAUNET_2269:1 0.3838
3 TAUNET_2269:1 TAUNET_2269:2 0.2033
4 TAUNET_2269:2 TAUNET_2269:3 0.3263
5 TAUNET_2269:3 TAUNET_2269:4 0.4574
6 TAUNET_2269:4 TAUNET_2269:5 0.4683
7 TAUNET_2269:5 inst_3467:B2 0.1543
8 TAUNET_2269:2 TAUNET_2269:6 0.2457
9 TAUNET_2269:6 TAUNET_2269:7 0.4210
10 TAUNET_2269:7 TAUNET_2269:8 0.2594
11 TAUNET_2269:8 TAUNET_2269:9 0.3565
12 TAUNET_2269:9 TAUNET_2269:10 0.4074
13 TAUNET_2269:10 inst_3868:B2 0.4309
14 TAUNET_2269:10 TAUNET_2269:11 0.3663
15 TAUNET_2269:11 TAUNET_2269:12 0.1512
16 TAUNET_2269:12 TAUNET_2269:13 0.1368
17 TAUNET_2269:13 inst_3764:C1 0.4493
18 TAUNET_2269:13 TAUNET_2269:14 0.4844
19 TAUNET_2269:14 TAUNET_2269:15 0.0401
20 TAUNET_2269:15 TAUNET_2269:16 0.2861
21 TAUNET_2269:16 TAUGATE_2269:A 0.1883
22 TAUNET_2269:2 TAUNET_2269:17 0.2111
23 TAUNET_2269:17 TAUNET_2269:18 0.3010
24 TAUNET_2269:18 TAUNET_2269:19 0.1515
25 TAUNET_2269:19 TAUNET_2269:20 0.0492
26 TAUNET_2269:20 inst_3857:C2 0.2707
*END

*D_NET net_2256 0.7974
*CONN
*I inst_1291:ZN O
*I inst_3373:D I
*CAP
1 inst_1291:ZN 0.2365
2 net_2256:1 0.2080
3 inst_3373:D 0.3529
*RES
2 inst_1291:ZN net_2256:1 0.4886
3 net_2256:1 inst_3373:D 0.3648
*END

*D_NET net_847 4.3032
*CONN
*I inst_2331:ZN O
*I inst_903:A3 I
*I inst_4142:A2 I
*I inst_1804:A2 I
*CAP
1 inst_2331:ZN 0.3187
2 net_847:1 0.0224
3 net_847:2 0.4026
4 net_847:3 0.2784
5 net_847:4 0.1803
6 net_847:5 0.0882
7 inst_1804:A2 0.2924
8 net_847:6 0.3922
9 net_847:7 0.3950
10 inst_4142:A2 0.2666
11 net_847:8 0.4169
12 net_847:9 0.3167
13 net_847:10 0.3376
14 net_847:11 0.1073
15 net_847:12 0.3579
16 inst_903:A3 0.1300
*RES
2 inst_2331:ZN net_847:1 0.4780
3 net_847:1 net_847:2 0.3510
4 net_847:2 net_847:3 0.1182
5 net_847:3 net_847:4 0.2614
6 net_847:4 net_847:5 0.1530
7 net_847:5 inst_1804:A2 0.2582
8 net_847:1 net_847:6 0.4255
9 net_847:6 net_847:7 0.4671
10 net_847:7 inst_4142:A2 0.2972
11 net_847:6 net_847:8 0.3795
12 net_847:8 net_847:9 0.2362
13 net_847:9 net_847:10 0.1908
14 net_847:10 net_847:11 0.1996
15 net_847:11 net_847:12 0.3123
16 net_847:12 inst_903:A3 0.1251
*END

*D_NET net_727 1.3186
*CONN
*I inst_225:ZN O
*I inst_330:A1 I
*I inst_2802:A I
*CAP
1 inst_225:ZN 0.3126
2 net_727:1 0.0541
3 inst_330:A1 0.3700
4 net_727:2 0.4904
5 inst_2802:A 0.0915
*RES
2 inst_225:ZN net_727:1 0.3260
3 net_727:1 inst_330:A1 0.3466
4 net_727:1 net_727:2 0.4619
5 net_727:2 inst_2802:A 0.1065
*END

*D_NET net_90 1.2947
*CONN
*I inst_144:Q O
*I inst_3880:B1 I
*I inst_144:SI I
*CAP
1 inst_144:Q 0.2576
2 net_90:1 0.2231
3 inst_3880:B1 0.2934
4 net_90:2 0.1980
5 inst_144:SI 0.3226
*RES
2 inst_144:Q net_90:1 0.0661
3 net_90:1 inst_3880:B1 0.0281
4 net_90:1 net_90:2 0.1282
5 net_90:2 inst_144:SI 0.2766
*END

*D_NET net_3669 4.2047
*CONN
*I inst_1433:ZN O
*I inst_959:A1 I
*I inst_2854:A I
*I inst_853:B I
*CAP
1 inst_1433:ZN 0.4267
2 net_3669:1 0.3295
3 net_3669:2 0.4724
4 net_3669:3 0.4631
5 net_3669:4 0.0407
6 net_3669:5 0.4130
7 inst_853:B 0.3462
8 net_3669:6 0.0346
9 net_3669:7 0.4333
10 net_3669:8 0.0645
11 inst_2854:A 0.3416
12 net_3669:9 0.2746
13 net_3669:10 0.4228
14 inst_959:A1 0.1417
*RES
2 inst_1433:ZN net_3669:1 0.0714
3 net_3669:1 net_3669:2 0.2110
4 net_3669:2 net_3669:3 0.2588
5 net_3669:3 net_3669:4 0.0339
6 net_3669:4 net_3669:5 0.0519
7 net_3669:5 inst_853:B 0.4874
8 net_3669:3 net_3669:6 0.4099
9 net_3669:6 net_3669:7 0.1540
10 net_3669:7 net_3669:8 0.0325
11 net_3669:8 inst_2854:A 0.0924
12 net_3669:4 net_3669:9 0.3754
13 net_3669:9 net_3669:10 0.2016
14 net_3669:10 inst_959:A1 0.0068
*END

*D_NET net_225 8.4130
*CONN
*I inst_2431:ZN O
*I inst_3480:B2 I
*I inst_3474:A2 I
*I inst_3791:B2 I
*I inst_3738:A2 I
*I inst_1914:A1 I
*I inst_732:B2 I
*I inst_2423:A I
*CAP
1 inst_2431:ZN 0.4220
2 net_225:1 0.0580
3 net_225:2 0.3810
4 net_225:3 0.2195
5 net_225:4 0.2042
6 net_225:5 0.2030
7 inst_3791:B2 0.2656
8 net_225:6 0.2654
9 inst_3474:A2 0.2245
10 net_225:7 0.4235
11 inst_3480:B2 0.1903
12 net_225:8 0.2497
13 net_225:9 0.2766
14 net_225:10 0.3086
15 net_225:11 0.2353
16 net_225:12 0.4838
17 inst_3738:A2 0.0722
18 net_225:13 0.1347
19 net_225:14 0.0224
20 inst_1914:A1 0.3933
21 net_225:15 0.3583
22 net_225:16 0.0251
23 net_225:17 0.0071
24 net_225:18 0.2242
25 net_225:19 0.4834
26 inst_732:B2 0.4589
27 net_225:20 0.4335
28 net_225:21 0.3158
29 net_225:22 0.2513
30 net_225:23 0.4798
31 net_225:24 0.1640
32 inst_2423:A 0.1778
*RES
2 inst_2431:ZN net_225:1 0.4413
3 net_225:1 net_225:2 0.1336
4 net_225:2 net_225:3 0.4042
5 net_225:3 net_225:4 0.0451
6 net_225:4 net_225:5 0.2391
7 net_225:5 inst_3791:B2 0.0321
8 net_225:5 net_225:6 0.4797
9 net_225:6 inst_3474:A2 0.0551
10 net_225:3 net_225:7 0.2143
11 net_225:7 inst_3480:B2 0.0701
12 net_225:5 net_225:8 0.3539
13 net_225:8 net_225:9 0.3446
14 net_225:9 net_225:10 0.0192
15 net_225:10 net_225:11 0.1341
16 net_225:11 net_225:12 0.4054
17 net_225:12 inst_3738:A2 0.3681
18 net_225:11 net_225:13 0.2244
19 net_225:13 net_225:14 0.4154
20 net_225:14 inst_1914:A1 0.1374
21 net_225:9 net_225:15 0.0098
22 net_225:15 net_225:16 0.3264
23 net_225:16 net_225:17 0.2846
24 net_225:17 net_225:18 0.4721
25 net_225:18 net_225:19 0.1185
26 net_225:19 inst_732:B2 0.4585
27 net_225:1 net_225:20 0.3155
28 net_225:20 net_225:21 0.4909
29 net_225:21 net_225:22 0.2285
30 net_225:22 net_225:23 0.2293
31 net_225:23 net_225:24 0.4514
32 net_225:24 inst_2423:A 0.1489
*END

*D_NET TAUNET_3381 3.0672
*CONN
*I TAUGATE_2585:Z O
*I TAUGATE_3381:A I
*I inst_88:A I
*CAP
1 TAUGATE_2585:Z 0.1815
2 TAUNET_3381:1 0.3238
3 TAUNET_3381:2 0.1536
4 TAUNET_3381:3 0.2744
5 inst_88:A 0.3973
6 TAUNET_3381:4 0.4392
7 TAUNET_3381:5 0.4660
8 TAUNET_3381:6 0.3296
9 TAUNET_3381:7 0.2711
10 TAUNET_3381:8 0.1177
11 TAUGATE_3381:A 0.1130
*RES
2 TAUGATE_2585:Z TAUNET_3381:1 0.0682
3 TAUNET_3381:1 TAUNET_3381:2 0.0813
4 TAUNET_3381:2 TAUNET_3381:3 0.2235
5 TAUNET_3381:3 inst_88:A 0.0018