*SPEF "IEEE 1481-1998"
*DESIGN "changes"
*DATE "Tue Dec 02 20:33:16 2014"
*VENDOR "TAU 2015 Contest"
*PROGRAM "Benchmark Parasitic Generator"
*VERSION "0.0"
*DESIGN_FLOW "NETLIST_TYPE_VERILOG"
*DIVIDER /
*DELIMITER :
*BUS_DELIMITER [ ]
*T_UNIT 1 PS
*C_UNIT 1 FF
*R_UNIT 1 KOHM
*L_UNIT 1 UH

*D_NET net_4065 4.5250
*CONN
*I TAUGATE_2072:Z O
*I inst_3771:A1 I
*I inst_3781:C1 I
*I inst_4016:C1 I
*CAP
1 TAUGATE_2072:Z 0.2611
2 net_4065:1 0.4098
3 net_4065:2 0.5009
4 net_4065:3 0.2843
5 inst_3781:C1 0.2878
6 net_4065:4 0.4685
7 net_4065:5 0.3070
8 net_4065:6 0.3583
9 inst_3771:A1 0.1395
10 net_4065:7 0.4644
11 net_4065:8 0.4559
12 net_4065:9 0.4050
13 net_4065:10 0.0154
14 inst_4016:C1 0.1670
*RES
2 TAUGATE_2072:Z net_4065:1 0.1659
3 net_4065:1 net_4065:2 0.2742
4 net_4065:2 net_4065:3 0.3494
5 net_4065:3 inst_3781:C1 0.1485
6 net_4065:3 net_4065:4 0.0646
7 net_4065:4 net_4065:5 0.0794
8 net_4065:5 net_4065:6 0.2161
9 net_4065:6 inst_3771:A1 0.1614
10 net_4065:4 net_4065:7 0.1555
11 net_4065:7 net_4065:8 0.2440
12 net_4065:8 net_4065:9 0.0332
13 net_4065:9 net_4065:10 0.0406
14 net_4065:10 inst_4016:C1 0.2732
*END

*D_NET TAUNET_3084 0.8663
*CONN
*I inst_3226:QN O
*I TAUGATE_3084:A I
*CAP
1 inst_3226:QN 0.1308
2 TAUNET_3084:1 0.2909
3 TAUNET_3084:2 0.3706
4 TAUGATE_3084:A 0.0740
*RES
2 inst_3226:QN TAUNET_3084:1 0.4871
3 TAUNET_3084:1 TAUNET_3084:2 0.4951
4 TAUNET_3084:2 TAUGATE_3084:A 0.4125
*END

*D_NET net_2418 0.8718
*CONN
*I TAUGATE_2506:Z O
*I inst_532:A I
*CAP
1 TAUGATE_2506:Z 0.1285
2 net_2418:1 0.2926
3 inst_532:A 0.4507
*RES
2 TAUGATE_2506:Z net_2418:1 0.3356
3 net_2418:1 inst_532:A 0.3995
*END

*D_NET net_943 2.6410
*CONN
*I TAUGATE_570:Z O
*I inst_1313:A1 I
*I inst_4088:A1 I
*CAP
1 TAUGATE_570:Z 0.4708
2 net_943:1 0.3464
3 net_943:2 0.0305
4 net_943:3 0.2383
5 net_943:4 0.4020
6 inst_4088:A1 0.2529
7 net_943:5 0.0716
8 net_943:6 0.2236
9 net_943:7 0.1922
10 net_943:8 0.2805
11 inst_1313:A1 0.1322
*RES
2 TAUGATE_570:Z net_943:1 0.2665
3 net_943:1 net_943:2 0.4354
4 net_943:2 net_943:3 0.1977
5 net_943:3 net_943:4 0.0788
6 net_943:4 inst_4088:A1 0.3276
7 net_943:4 net_943:5 0.1905
8 net_943:5 net_943:6 0.4017
9 net_943:6 net_943:7 0.4680
10 net_943:7 net_943:8 0.2976
11 net_943:8 inst_1313:A1 0.2331
*END

*D_NET net_1897 1.3358
*CONN
*I TAUGATE_2125:Z O
*I inst_3384:D I
*CAP
1 TAUGATE_2125:Z 0.3943
2 net_1897:1 0.1955
3 net_1897:2 0.1868
4 net_1897:3 0.4889
5 inst_3384:D 0.0703
*RES
2 TAUGATE_2125:Z net_1897:1 0.3298
3 net_1897:1 net_1897:2 0.4131
4 net_1897:2 net_1897:3 0.3310
5 net_1897:3 inst_3384:D 0.2621
*END

*D_NET TAUNET_1856 0.9833
*CONN
*I inst_446:ZN O
*I TAUGATE_1856:A I
*CAP
1 inst_446:ZN 0.1808
2 TAUNET_1856:1 0.3990
3 TAUGATE_1856:A 0.4035
*RES
2 inst_446:ZN TAUNET_1856:1 0.0219
3 TAUNET_1856:1 TAUGATE_1856:A 0.0830
*END

*D_NET net_980 1.6212
*CONN
*I TAUGATE_638:Z O
*I inst_843:A I
*CAP
1 TAUGATE_638:Z 0.1250
2 net_980:1 0.4976
3 net_980:2 0.3591
4 net_980:3 0.2780
5 net_980:4 0.2022
6 inst_843:A 0.1593
*RES
2 TAUGATE_638:Z net_980:1 0.4382
3 net_980:1 net_980:2 0.3498
4 net_980:2 net_980:3 0.4055
5 net_980:3 net_980:4 0.4519
6 net_980:4 inst_843:A 0.4658
*END

*D_NET net_53 3.1287
*CONN
*I TAUGATE_3471:Z O
*I inst_1102:A1 I
*I inst_1207:A2 I
*I inst_1705:A2 I
*CAP
1 TAUGATE_3471:Z 0.4019
2 net_53:1 0.2503
3 inst_1705:A2 0.4700
4 net_53:2 0.0376
5 net_53:3 0.0972
6 net_53:4 0.3594
7 net_53:5 0.0525
8 net_53:6 0.3248
9 inst_1207:A2 0.2597
10 net_53:7 0.4443
11 net_53:8 0.1288
12 inst_1102:A1 0.3022
*RES
2 TAUGATE_3471:Z net_53:1 0.3789
3 net_53:1 inst_1705:A2 0.3545
4 net_53:1 net_53:2 0.1267
5 net_53:2 net_53:3 0.3840
6 net_53:3 net_53:4 0.2434
7 net_53:4 net_53:5 0.3726
8 net_53:5 net_53:6 0.2980
9 net_53:6 inst_1207:A2 0.2454
10 net_53:2 net_53:7 0.1405
11 net_53:7 net_53:8 0.0668
12 net_53:8 inst_1102:A1 0.3699
*END

*D_NET net_2542 1.5989
*CONN
*I TAUGATE_3631:Z O
*I inst_3143:D I
*CAP
1 TAUGATE_3631:Z 0.4004
2 net_2542:1 0.1341
3 net_2542:2 0.3915
4 net_2542:3 0.0282
5 net_2542:4 0.3089
6 net_2542:5 0.0253
7 inst_3143:D 0.3105
*RES
2 TAUGATE_3631:Z net_2542:1 0.1881
3 net_2542:1 net_2542:2 0.2034
4 net_2542:2 net_2542:3 0.1592
5 net_2542:3 net_2542:4 0.3147
6 net_2542:4 net_2542:5 0.2761
7 net_2542:5 inst_3143:D 0.3643
*END

*D_NET TAUNET_4152 1.2795
*CONN
*I inst_3830:ZN O
*I TAUGATE_4152:A I
*CAP
1 inst_3830:ZN 0.0666
2 TAUNET_4152:1 0.3580
3 TAUNET_4152:2 0.3774
4 TAUNET_4152:3 0.2731
5 TAUNET_4152:4 0.1525
6 TAUGATE_4152:A 0.0518
*RES
2 inst_3830:ZN TAUNET_4152:1 0.2548
3 TAUNET_4152:1 TAUNET_4152:2 0.2154
4 TAUNET_4152:2 TAUNET_4152:3 0.4921
5 TAUNET_4152:3 TAUNET_4152:4 0.1648
6 TAUNET_4152:4 TAUGATE_4152:A 0.1855
*END

*D_NET net_3996 1.9582
*CONN
*I TAUGATE_4280:Z O
*I inst_3086:A I
*I inst_1272:A2 I
*CAP
1 TAUGATE_4280:Z 0.3530
2 net_3996:1 0.2239
3 net_3996:2 0.0917
4 inst_3086:A 0.4230
5 net_3996:3 0.4381
6 net_3996:4 0.3484
7 inst_1272:A2 0.0801
*RES
2 TAUGATE_4280:Z net_3996:1 0.1494
3 net_3996:1 net_3996:2 0.3290
4 net_3996:2 inst_3086:A 0.1620
5 net_3996:2 net_3996:3 0.1392
6 net_3996:3 net_3996:4 0.1891
7 net_3996:4 inst_1272:A2 0.0464
*END

*D_NET TAUNET_3144 1.0649
*CONN
*I inst_2588:ZN O
*I TAUGATE_3144:A I
*CAP
1 inst_2588:ZN 0.0279
2 TAUNET_3144:1 0.0649
3 TAUNET_3144:2 0.0510
4 TAUNET_3144:3 0.1600
5 TAUNET_3144:4 0.1748
6 TAUNET_3144:5 0.4787
7 TAUGATE_3144:A 0.1076
*RES
2 inst_2588:ZN TAUNET_3144:1 0.4606
3 TAUNET_3144:1 TAUNET_3144:2 0.3388
4 TAUNET_3144:2 TAUNET_3144:3 0.4657
5 TAUNET_3144:3 TAUNET_3144:4 0.3595
6 TAUNET_3144:4 TAUNET_3144:5 0.2471
7 TAUNET_3144:5 TAUGATE_3144:A 0.0832
*END

*D_NET TAUNET_91 0.8209
*CONN
*I inst_3532:ZN O
*I TAUGATE_91:A I
*CAP
1 inst_3532:ZN 0.3736
2 TAUNET_91:1 0.3644
3 TAUGATE_91:A 0.0829
*RES
2 inst_3532:ZN TAUNET_91:1 0.1977
3 TAUNET_91:1 TAUGATE_91:A 0.4694
*END

*D_NET TAUNET_3158 2.0853
*CONN
*I inst_1415:ZN O
*I TAUGATE_3158:A I
*CAP
1 inst_1415:ZN 0.3882
2 TAUNET_3158:1 0.0413
3 TAUNET_3158:2 0.4651
4 TAUNET_3158:3 0.4065
5 TAUNET_3158:4 0.3164
6 TAUNET_3158:5 0.3513
7 TAUGATE_3158:A 0.1165
*RES
2 inst_1415:ZN TAUNET_3158:1 0.0986
3 TAUNET_3158:1 TAUNET_3158:2 0.2243
4 TAUNET_3158:2 TAUNET_3158:3 0.1286
5 TAUNET_3158:3 TAUNET_3158:4 0.4269
6 TAUNET_3158:4 TAUNET_3158:5 0.2482
7 TAUNET_3158:5 TAUGATE_3158:A 0.2195
*END

*D_NET TAUNET_603 1.7569
*CONN
*I inst_2942:ZN O
*I TAUGATE_603:A I
*CAP
1 inst_2942:ZN 0.4091
2 TAUNET_603:1 0.3587
3 TAUNET_603:2 0.1869
4 TAUNET_603:3 0.4974
5 TAUGATE_603:A 0.3047
*RES
2 inst_2942:ZN TAUNET_603:1 0.1200
3 TAUNET_603:1 TAUNET_603:2 0.4969
4 TAUNET_603:2 TAUNET_603:3 0.1210
5 TAUNET_603:3 TAUGATE_603:A 0.1733
*END

*D_NET TAUNET_1882 1.1896
*CONN
*I inst_1372:ZN O
*I TAUGATE_1882:A I
*CAP
1 inst_1372:ZN 0.0283
2 TAUNET_1882:1 0.2945
3 TAUNET_1882:2 0.3177
4 TAUNET_1882:3 0.2101
5 TAUGATE_1882:A 0.3390
*RES
2 inst_1372:ZN TAUNET_1882:1 0.2046
3 TAUNET_1882:1 TAUNET_1882:2 0.3404
4 TAUNET_1882:2 TAUNET_1882:3 0.1317
5 TAUNET_1882:3 TAUGATE_1882:A 0.3617
*END

*D_NET net_2256 1.2055
*CONN
*I TAUGATE_2607:Z O
*I inst_3373:D I
*CAP
1 TAUGATE_2607:Z 0.3629
2 net_2256:1 0.3900
3 net_2256:2 0.0557
4 net_2256:3 0.1253
5 inst_3373:D 0.2716
*RES
2 TAUGATE_2607:Z net_2256:1 0.3735
3 net_2256:1 net_2256:2 0.1079
4 net_2256:2 net_2256:3 0.3323
5 net_2256:3 inst_3373:D 0.2907
*END

*D_NET net_264 6.1698
*CONN
*I TAUGATE_2138:Z O
*I inst_1910:A2 I
*I inst_908:A2 I
*I inst_401:B2 I
*I inst_3045:A I
*I inst_334:B2 I
*CAP
1 TAUGATE_2138:Z 0.4966
2 net_264:1 0.2702
3 net_264:2 0.2135
4 net_264:3 0.0419
5 net_264:4 0.2773
6 net_264:5 0.0903
7 inst_1910:A2 0.0485
8 net_264:6 0.2458
9 net_264:7 0.3734
10 net_264:8 0.1567
11 inst_908:A2 0.1247
12 net_264:9 0.1981
13 net_264:10 0.3275
14 net_264:11 0.0169
15 net_264:12 0.4026
16 net_264:13 0.4684
17 inst_401:B2 0.2490
18 net_264:14 0.0209
19 net_264:15 0.4380
20 inst_3045:A 0.4130
21 net_264:16 0.4464
22 net_264:17 0.2438
23 net_264:18 0.2969
24 inst_334:B2 0.3091
*RES
2 TAUGATE_2138:Z net_264:1 0.4602
3 net_264:1 net_264:2 0.4262
4 net_264:2 net_264:3 0.2009
5 net_264:3 net_264:4 0.3114
6 net_264:4 net_264:5 0.3090
7 net_264:5 inst_1910:A2 0.3972
8 net_264:5 net_264:6 0.2439
9 net_264:6 net_264:7 0.2588
10 net_264:7 net_264:8 0.4474
11 net_264:8 inst_908:A2 0.3528
12 net_264:1 net_264:9 0.0579
13 net_264:9 net_264:10 0.0423
14 net_264:10 net_264:11 0.2861
15 net_264:11 net_264:12 0.4278
16 net_264:12 net_264:13 0.3875
17 net_264:13 inst_401:B2 0.4796
18 net_264:10 net_264:14 0.4990
19 net_264:14 net_264:15 0.2134
20 net_264:15 inst_3045:A 0.1115
21 net_264:12 net_264:16 0.5006
22 net_264:16 net_264:17 0.2264
23 net_264:17 net_264:18 0.3973
24 net_264:18 inst_334:B2 0.2044
*END

*D_NET TAUNET_192 1.5866
*CONN
*I inst_813:ZN O
*I TAUGATE_192:A I
*CAP
1 inst_813:ZN 0.3886
2 TAUNET_192:1 0.2468
3 TAUNET_192:2 0.4002
4 TAUNET_192:3 0.3652
5 TAUGATE_192:A 0.1857
*RES
2 inst_813:ZN TAUNET_192:1 0.0562
3 TAUNET_192:1 TAUNET_192:2 0.0882
4 TAUNET_192:2 TAUNET_192:3 0.4386
5 TAUNET_192:3 TAUGATE_192:A 0.2715
*END

*D_NET net_3904 0.8240
*CONN
*I TAUGATE_1757:Z O
*I inst_464:B1 I
*CAP
1 TAUGATE_1757:Z 0.4145
2 net_3904:1 0.1130
3 net_3904:2 0.1026
4 inst_464:B1 0.1939
*RES
2 TAUGATE_1757:Z net_3904:1 0.1095
3 net_3904:1 net_3904:2 0.0212
4 net_3904:2 inst_464:B1 0.1417
*END

*D_NET TAUNET_874 1.5062
*CONN
*I inst_559:ZN O
*I TAUGATE_874:A I
*CAP
1 inst_559:ZN 0.4826
2 TAUNET_874:1 0.4033
3 TAUNET_874:2 0.3663
4 TAUGATE_874:A 0.2540
*RES
2 inst_559:ZN TAUNET_874:1 0.0526
3 TAUNET_874:1 TAUNET_874:2 0.2388
4 TAUNET_874:2 TAUGATE_874:A 0.1787
*END

*D_NET net_4122 1.4991
*CONN
*I TAUGATE_3841:Z O
*I inst_4163:A2 I
*I inst_30:A I
*CAP
1 TAUGATE_3841:Z 0.0603
2 net_4122:1 0.3102
3 inst_30:A 0.1239
4 net_4122:2 0.4441
5 net_4122:3 0.4218
6 net_4122:4 0.0848
7 net_4122:5 0.0266
8 inst_4163:A2 0.0274
*RES
2 TAUGATE_3841:Z net_4122:1 0.2473
3 net_4122:1 inst_30:A 0.0055
4 net_4122:1 net_4122:2 0.4218
5 net_4122:2 net_4122:3 0.2061
6 net_4122:3 net_4122:4 0.2110
7 net_4122:4 net_4122:5 0.4583
8 net_4122:5 inst_4163:A2 0.3985
*END

*D_NET TAUNET_3657 1.9898
*CONN
*I inst_19:Z O
*I TAUGATE_3657:A I
*CAP
1 inst_19:Z 0.0725
2 TAUNET_3657:1 0.3124
3 TAUNET_3657:2 0.3685
4 TAUNET_3657:3 0.4317
5 TAUNET_3657:4 0.1801
6 TAUNET_3657:5 0.2826
7 TAUGATE_3657:A 0.3420
*RES
2 inst_19:Z TAUNET_3657:1 0.0965
3 TAUNET_3657:1 TAUNET_3657:2 0.2555
4 TAUNET_3657:2 TAUNET_3657:3 0.1304
5 TAUNET_3657:3 TAUNET_3657:4 0.3675
6 TAUNET_3657:4 TAUNET_3657:5 0.4634
7 TAUNET_3657:5 TAUGATE_3657:A 0.2869
*END

*D_NET TAUNET_4178 0.5511
*CONN
*I inst_3950:ZN O
*I TAUGATE_4178:A I
*CAP
1 inst_3950:ZN 0.1182
2 TAUNET_4178:1 0.0608
3 TAUGATE_4178:A 0.3721
*RES
2 inst_3950:ZN TAUNET_4178:1 0.4648
3 TAUNET_4178:1 TAUGATE_4178:A 0.2376
*END

*D_NET TAUNET_4006 0.8353
*CONN
*I inst_3605:ZN O
*I TAUGATE_4006:A I
*CAP
1 inst_3605:ZN 0.3081
2 TAUNET_4006:1 0.0264
3 TAUNET_4006:2 0.2502
4 TAUGATE_4006:A 0.2506
*RES
2 inst_3605:ZN TAUNET_4006:1 0.4486
3 TAUNET_4006:1 TAUNET_4006:2 0.0641
4 TAUNET_4006:2 TAUGATE_4006:A 0.0138
*END

*D_NET TAUNET_427 0.7959
*CONN
*I inst_66:ZN O
*I TAUGATE_427:A I
*CAP
1 inst_66:ZN 0.0204
2 TAUNET_427:1 0.1001
3 TAUNET_427:2 0.2747
4 TAUNET_427:3 0.1704
5 TAUGATE_427:A 0.2303
*RES
2 inst_66:ZN TAUNET_427:1 0.0121
3 TAUNET_427:1 TAUNET_427:2 0.0620
4 TAUNET_427:2 TAUNET_427:3 0.0267
5 TAUNET_427:3 TAUGATE_427:A 0.1278
*END

*D_NET net_2769 1.5058
*CONN
*I TAUGATE_3959:Z O
*I inst_3342:D I
*CAP
1 TAUGATE_3959:Z 0.3621
2 net_2769:1 0.3490
3 net_2769:2 0.4751
4 inst_3342:D 0.3195
*RES
2 TAUGATE_3959:Z net_2769:1 0.4748
3 net_2769:1 net_2769:2 0.2505
4 net_2769:2 inst_3342:D 0.2036
*END

*D_NET TAUNET_3806 1.2849
*CONN
*I inst_2012:ZN O
*I TAUGATE_3806:A I
*CAP
1 inst_2012:ZN 0.0185
2 TAUNET_3806:1 0.2437
3 TAUNET_3806:2 0.3641
4 TAUNET_3806:3 0.1411
5 TAUNET_3806:4 0.2452
6 TAUGATE_3806:A 0.2723
*RES
2 inst_2012:ZN TAUNET_3806:1 0.2079
3 TAUNET_3806:1 TAUNET_3806:2 0.2449
4 TAUNET_3806:2 TAUNET_3806:3 0.0406
5 TAUNET_3806:3 TAUNET_3806:4 0.0917
6 TAUNET_3806:4 TAUGATE_3806:A 0.0078
*END

*D_NET net_1064 3.2826
*CONN
*I TAUGATE_3450:Z O
*I inst_1044:A2 I
*I inst_2296:A I
*I inst_1781:A2 I
*CAP
1 TAUGATE_3450:Z 0.0264
2 net_1064:1 0.1906
3 inst_1044:A2 0.1553
4 net_1064:2 0.5008
5 net_1064:3 0.2979
6 net_1064:4 0.3428
7 inst_2296:A 0.2325
8 net_1064:5 0.4503
9 net_1064:6 0.3676
10 net_1064:7 0.1603
11 net_1064:8 0.4423
12 inst_1781:A2 0.1159
*RES
2 TAUGATE_3450:Z net_1064:1 0.0937
3 net_1064:1 inst_1044:A2 0.2944
4 net_1064:1 net_1064:2 0.2733
5 net_1064:2 net_1064:3 0.1266
6 net_1064:3 net_1064:4 0.3814
7 net_1064:4 inst_2296:A 0.1363
8 net_1064:3 net_1064:5 0.4527
9 net_1064:5 net_1064:6 0.1465
10 net_1064:6 net_1064:7 0.1463
11 net_1064:7 net_1064:8 0.4621
12 net_1064:8 inst_1781:A2 0.4065
*END

*D_NET net_3707 1.4489
*CONN
*I TAUGATE_66:Z O
*I inst_3356:D I
*CAP
1 TAUGATE_66:Z 0.2236
2 net_3707:1 0.0715
3 net_3707:2 0.1546
4 net_3707:3 0.1861
5 net_3707:4 0.4367
6 net_3707:5 0.3452
7 inst_3356:D 0.0313
*RES
2 TAUGATE_66:Z net_3707:1 0.1217
3 net_3707:1 net_3707:2 0.0111
4 net_3707:2 net_3707:3 0.1222
5 net_3707:3 net_3707:4 0.0613
6 net_3707:4 net_3707:5 0.1692
7 net_3707:5 inst_3356:D 0.4407
*END

*D_NET net_2082 2.9567
*CONN
*I TAUGATE_3751:Z O
*I inst_1672:A1 I
*I inst_1675:A1 I
*CAP
1 TAUGATE_3751:Z 0.2563
2 net_2082:1 0.2603
3 net_2082:2 0.2874
4 net_2082:3 0.3072
5 inst_1675:A1 0.2768
6 net_2082:4 0.2138
7 net_2082:5 0.4796
8 net_2082:6 0.3806
9 inst_1672:A1 0.4946
*RES
2 TAUGATE_3751:Z net_2082:1 0.1679
3 net_2082:1 net_2082:2 0.2053
4 net_2082:2 net_2082:3 0.2140
5 net_2082:3 inst_1675:A1 0.3306
6 net_2082:1 net_2082:4 0.4608
7 net_2082:4 net_2082:5 0.4692
8 net_2082:5 net_2082:6 0.4766
9 net_2082:6 inst_1672:A1 0.0589
*END

*D_NET TAUNET_546 0.9251
*CONN
*I inst_2618:ZN O
*I TAUGATE_546:A I
*CAP
1 inst_2618:ZN 0.2415
2 TAUNET_546:1 0.4103
3 TAUNET_546:2 0.0845
4 TAUGATE_546:A 0.1888
*RES
2 inst_2618:ZN TAUNET_546:1 0.1436
3 TAUNET_546:1 TAUNET_546:2 0.1762
4 TAUNET_546:2 TAUGATE_546:A 0.4748
*END

*D_NET TAUNET_2788 1.1069
*CONN
*I inst_972:ZN O
*I TAUGATE_2788:A I
*CAP
1 inst_972:ZN 0.0407
2 TAUNET_2788:1 0.0491
3 TAUNET_2788:2 0.4137
4 TAUNET_2788:3 0.3046
5 TAUGATE_2788:A 0.2987
*RES
2 inst_972:ZN TAUNET_2788:1 0.2640
3 TAUNET_2788:1 TAUNET_2788:2 0.1831
4 TAUNET_2788:2 TAUNET_2788:3 0.4110
5 TAUNET_2788:3 TAUGATE_2788:A 0.0191
*END

*D_NET TAUNET_2177 1.9101
*CONN
*I inst_2736:ZN O
*I TAUGATE_2177:A I
*CAP
1 inst_2736:ZN 0.4300
2 TAUNET_2177:1 0.0787
3 TAUNET_2177:2 0.2007
4 TAUNET_2177:3 0.2971
5 TAUNET_2177:4 0.4025
6 TAUGATE_2177:A 0.5010
*RES
2 inst_2736:ZN TAUNET_2177:1 0.3538
3 TAUNET_2177:1 TAUNET_2177:2 0.4649
4 TAUNET_2177:2 TAUNET_2177:3 0.0482
5 TAUNET_2177:3 TAUNET_2177:4 0.1062
6 TAUNET_2177:4 TAUGATE_2177:A 0.2963
*END

*D_NET TAUNET_3739 1.3534
*CONN
*I inst_584:ZN O
*I TAUGATE_3739:A I
*CAP
1 inst_584:ZN 0.2002
2 TAUNET_3739:1 0.3761
3 TAUNET_3739:2 0.0616
4 TAUNET_3739:3 0.4298
5 TAUGATE_3739:A 0.2857
*RES
2 inst_584:ZN TAUNET_3739:1 0.2634
3 TAUNET_3739:1 TAUNET_3739:2 0.0470
4 TAUNET_3739:2 TAUNET_3739:3 0.0745
5 TAUNET_3739:3 TAUGATE_3739:A 0.1738
*END

*D_NET TAUNET_3182 0.9060
*CONN
*I inst_2456:ZN O
*I TAUGATE_3182:A I
*CAP
1 inst_2456:ZN 0.4556
2 TAUNET_3182:1 0.0036
3 TAUNET_3182:2 0.1731
4 TAUGATE_3182:A 0.2737
*RES
2 inst_2456:ZN TAUNET_3182:1 0.3095
3 TAUNET_3182:1 TAUNET_3182:2 0.4895
4 TAUNET_3182:2 TAUGATE_3182:A 0.4033
*END

*D_NET TAUNET_362 1.7738
*CONN
*I inst_2531:ZN O
*I TAUGATE_362:A I
*CAP
1 inst_2531:ZN 0.3461
2 TAUNET_362:1 0.0418
3 TAUNET_362:2 0.3671
4 TAUNET_362:3 0.3815
5 TAUNET_362:4 0.1458
6 TAUGATE_362:A 0.4915
*RES
2 inst_2531:ZN TAUNET_362:1 0.0683
3 TAUNET_362:1 TAUNET_362:2 0.2135
4 TAUNET_362:2 TAUNET_362:3 0.4484
5 TAUNET_362:3 TAUNET_362:4 0.1379
6 TAUNET_362:4 TAUGATE_362:A 0.1139
*END

*D_NET TAUNET_3133 1.0254
*CONN
*I inst_239:ZN O
*I TAUGATE_3133:A I
*CAP
1 inst_239:ZN 0.0861
2 TAUNET_3133:1 0.4806
3 TAUNET_3133:2 0.3473
4 TAUGATE_3133:A 0.1114
*RES
2 inst_239:ZN TAUNET_3133:1 0.0198
3 TAUNET_3133:1 TAUNET_3133:2 0.2366
4 TAUNET_3133:2 TAUGATE_3133:A 0.1100
*END

*D_NET TAUNET_3433 1.2760
*CONN
*I inst_2545:ZN O
*I TAUGATE_3433:A I
*CAP
1 inst_2545:ZN 0.3290
2 TAUNET_3433:1 0.4236
3 TAUNET_3433:2 0.3328
4 TAUGATE_3433:A 0.1906
*RES
2 inst_2545:ZN TAUNET_3433:1 0.5003
3 TAUNET_3433:1 TAUNET_3433:2 0.4347
4 TAUNET_3433:2 TAUGATE_3433:A 0.3044
*END

*D_NET TAUNET_2302 1.5228
*CONN
*I inst_2979:ZN O
*I TAUGATE_2302:A I
*CAP
1 inst_2979:ZN 0.0096
2 TAUNET_2302:1 0.2377
3 TAUNET_2302:2 0.2571
4 TAUNET_2302:3 0.3610
5 TAUNET_2302:4 0.0042
6 TAUNET_2302:5 0.2690
7 TAUGATE_2302:A 0.3841
*RES
2 inst_2979:ZN TAUNET_2302:1 0.3400
3 TAUNET_2302:1 TAUNET_2302:2 0.2352
4 TAUNET_2302:2 TAUNET_2302:3 0.3112
5 TAUNET_2302:3 TAUNET_2302:4 0.1345
6 TAUNET_2302:4 TAUNET_2302:5 0.4134
7 TAUNET_2302:5 TAUGATE_2302:A 0.0741
*END

*D_NET TAUNET_3440 0.9047
*CONN
*I inst_1556:ZN O
*I TAUGATE_3440:A I
*CAP
1 inst_1556:ZN 0.4891
2 TAUNET_3440:1 0.2122
3 TAUGATE_3440:A 0.2034
*RES
2 inst_1556:ZN TAUNET_3440:1 0.1253
3 TAUNET_3440:1 TAUGATE_3440:A 0.2112
*END

*D_NET TAUNET_932 0.7145
*CONN
*I inst_2059:ZN O
*I TAUGATE_932:A I
*CAP
1 inst_2059:ZN 0.1106
2 TAUNET_932:1 0.2644
3 TAUGATE_932:A 0.3395
*RES
2 inst_2059:ZN TAUNET_932:1 0.4160
3 TAUNET_932:1 TAUGATE_932:A 0.1311
*END

*D_NET net_703 0.5652
*CONN
*I TAUGATE_4200:Z O
*I inst_2319:A I
*CAP
1 TAUGATE_4200:Z 0.0535
2 net_703:1 0.2939
3 inst_2319:A 0.2177
*RES
2 TAUGATE_4200:Z net_703:1 0.0520
3 net_703:1 inst_2319:A 0.1787
*END

*D_NET TAUNET_526 1.2588
*CONN
*I inst_527:ZN O
*I TAUGATE_526:A I
*CAP
1 inst_527:ZN 0.2308
2 TAUNET_526:1 0.4154
3 TAUNET_526:2 0.4205
4 TAUGATE_526:A 0.1921
*RES
2 inst_527:ZN TAUNET_526:1 0.3303
3 TAUNET_526:1 TAUNET_526:2 0.0500
4 TAUNET_526:2 TAUGATE_526:A 0.3450
*END

*D_NET net_193 3.7136
*CONN
*I TAUGATE_133:Z O
*I inst_3610:B2 I
*I inst_1559:A2 I
*I inst_3683:B2 I
*I inst_1660:A2 I
*CAP
1 TAUGATE_133:Z 0.2397
2 net_193:1 0.0450
3 net_193:2 0.3586
4 net_193:3 0.1804
5 net_193:4 0.2132
6 inst_3683:B2 0.3448
7 net_193:5 0.3825
8 inst_1559:A2 0.4916
9 net_193:6 0.0730
10 inst_3610:B2 0.2996
11 net_193:7 0.4347
12 net_193:8 0.2976
13 inst_1660:A2 0.3531
*RES
2 TAUGATE_133:Z net_193:1 0.2539
3 net_193:1 net_193:2 0.0169
4 net_193:2 net_193:3 0.2910
5 net_193:3 net_193:4 0.3418
6 net_193:4 inst_3683:B2 0.0277
7 net_193:2 net_193:5 0.0258
8 net_193:5 inst_1559:A2 0.0722
9 net_193:1 net_193:6 0.1500
10 net_193:6 inst_3610:B2 0.2720
11 net_193:1 net_193:7 0.0316
12 net_193:7 net_193:8 0.1823
13 net_193:8 inst_1660:A2 0.0755
*END

*D_NET TAUNET_831 1.1637
*CONN
*I inst_682:ZN O
*I TAUGATE_831:A I
*CAP
1 inst_682:ZN 0.3515
2 TAUNET_831:1 0.4269
3 TAUNET_831:2 0.0493
4 TAUNET_831:3 0.0341
5 TAUGATE_831:A 0.3020
*RES
2 inst_682:ZN TAUNET_831:1 0.3389
3 TAUNET_831:1 TAUNET_831:2 0.4000
4 TAUNET_831:2 TAUNET_831:3 0.0188
5 TAUNET_831:3 TAUGATE_831:A 0.4709
*END

*D_NET TAUNET_992 0.8262
*CONN
*I inst_438:ZN O
*I TAUGATE_992:A I
*CAP
1 inst_438:ZN 0.0122
2 TAUNET_992:1 0.0936
3 TAUNET_992:2 0.3051
4 TAUNET_992:3 0.1197
5 TAUGATE_992:A 0.2956
*RES
2 inst_438:ZN TAUNET_992:1 0.2210
3 TAUNET_992:1 TAUNET_992:2 0.0970
4 TAUNET_992:2 TAUNET_992:3 0.2798
5 TAUNET_992:3 TAUGATE_992:A 0.3150
*END

*D_NET TAUNET_3288 1.2664
*CONN
*I inst_676:ZN O
*I TAUGATE_3288:A I
*CAP
1 inst_676:ZN 0.2108
2 TAUNET_3288:1 0.0161
3 TAUNET_3288:2 0.2047
4 TAUNET_3288:3 0.3729
5 TAUNET_3288:4 0.0610
6 TAUGATE_3288:A 0.4010
*RES
2 inst_676:ZN TAUNET_3288:1 0.2910
3 TAUNET_3288:1 TAUNET_3288:2 0.3768
4 TAUNET_3288:2 TAUNET_3288:3 0.3083
5 TAUNET_3288:3 TAUNET_3288:4 0.1250
6 TAUNET_3288:4 TAUGATE_3288:A 0.3526
*END

*D_NET net_2942 1.6292
*CONN
*I TAUGATE_1093:Z O
*I inst_3257:D I
*CAP
1 TAUGATE_1093:Z 0.3144
2 net_2942:1 0.0820
3 net_2942:2 0.2174
4 net_2942:3 0.3638
5 net_2942:4 0.4097
6 inst_3257:D 0.2418
*RES
2 TAUGATE_1093:Z net_2942:1 0.4080
3 net_2942:1 net_2942:2 0.3118
4 net_2942:2 net_2942:3 0.4981
5 net_2942:3 net_2942:4 0.3134
6 net_2942:4 inst_3257:D 0.4059
*END

*D_NET net_3817 10.7497
*CONN
*I TAUGATE_269:Z O
*I inst_2008:A1 I
*I inst_1924:A1 I
*I inst_3461:A1 I
*I inst_2094:A1 I
*I inst_1670:A1 I
*I inst_2060:A1 I
*I inst_2607:A I
*I inst_1923:A1 I
*I inst_1922:A1 I
*I inst_1666:A1 I
*I inst_2608:A I
*CAP
1 TAUGATE_269:Z 0.0910
2 net_3817:1 0.3093
3 net_3817:2 0.3342
4 inst_2094:A1 0.2150
5 net_3817:3 0.0521
6 inst_1924:A1 0.0546
7 net_3817:4 0.2784
8 net_3817:5 0.2008
9 inst_3461:A1 0.3776
10 net_3817:6 0.1138
11 inst_2008:A1 0.3809
12 net_3817:7 0.2211
13 net_3817:8 0.2185
14 net_3817:9 0.2266
15 net_3817:10 0.2538
16 inst_1670:A1 0.1297
17 net_3817:11 0.3035
18 net_3817:12 0.4053
19 inst_2060:A1 0.0863
20 net_3817:13 0.1111
21 net_3817:14 0.3711
22 net_3817:15 0.0512
23 inst_2607:A 0.1351
24 net_3817:16 0.4832
25 net_3817:17 0.2776
26 net_3817:18 0.3781
27 net_3817:19 0.3766
28 net_3817:20 0.0185
29 inst_1923:A1 0.3877
30 net_3817:21 0.4372
31 net_3817:22 0.1158
32 net_3817:23 0.1153
33 inst_1922:A1 0.3810
34 net_3817:24 0.2343
35 net_3817:25 0.0981
36 net_3817:26 0.3461
37 net_3817:27 0.2382
38 net_3817:28 0.4109
39 inst_1666:A1 0.0945
40 net_3817:29 0.4392
41 net_3817:30 0.4048
42 net_3817:31 0.0368
43 net_3817:32 0.3283
44 inst_2608:A 0.2266
*RES
2 TAUGATE_269:Z net_3817:1 0.0109
3 net_3817:1 net_3817:2 0.1830
4 net_3817:2 inst_2094:A1 0.2298
5 net_3817:1 net_3817:3 0.0043
6 net_3817:3 inst_1924:A1 0.2737
7 net_3817:2 net_3817:4 0.2937
8 net_3817:4 net_3817:5 0.0093
9 net_3817:5 inst_3461:A1 0.2822
10 net_3817:5 net_3817:6 0.3567
11 net_3817:6 inst_2008:A1 0.3242
12 net_3817:2 net_3817:7 0.4791
13 net_3817:7 net_3817:8 0.2417
14 net_3817:8 net_3817:9 0.2444
15 net_3817:9 net_3817:10 0.4262
16 net_3817:10 inst_1670:A1 0.3737
17 net_3817:6 net_3817:11 0.2362
18 net_3817:11 net_3817:12 0.1365
19 net_3817:12 inst_2060:A1 0.0277
20 net_3817:11 net_3817:13 0.0984
21 net_3817:13 net_3817:14 0.0368
22 net_3817:14 net_3817:15 0.4376
23 net_3817:15 inst_2607:A 0.1423
24 net_3817:10 net_3817:16 0.1588
25 net_3817:16 net_3817:17 0.3738
26 net_3817:17 net_3817:18 0.4556
27 net_3817:18 net_3817:19 0.1835
28 net_3817:19 net_3817:20 0.0020
29 net_3817:20 inst_1923:A1 0.2614
30 net_3817:12 net_3817:21 0.1100
31 net_3817:21 net_3817:22 0.1662
32 net_3817:22 net_3817:23 0.3178
33 net_3817:23 inst_1922:A1 0.2541
34 net_3817:11 net_3817:24 0.2326
35 net_3817:24 net_3817:25 0.0121
36 net_3817:25 net_3817:26 0.2674
37 net_3817:26 net_3817:27 0.2072
38 net_3817:27 net_3817:28 0.0414
39 net_3817:28 inst_1666:A1 0.2455
40 net_3817:26 net_3817:29 0.4199
41 net_3817:29 net_3817:30 0.3736
42 net_3817:30 net_3817:31 0.3306
43 net_3817:31 net_3817:32 0.3042
44 net_3817:32 inst_2608:A 0.1317
*END

*D_NET net_3281 8.8205
*CONN
*I TAUGATE_3323:Z O
*I inst_1679:A1 I
*I inst_1953:A2 I
*I inst_1681:A1 I
*I inst_2140:A I
*I inst_1949:A2 I
*I inst_1680:A1 I
*I inst_2530:A I
*CAP
1 TAUGATE_3323:Z 0.2485
2 net_3281:1 0.2966
3 net_3281:2 0.3013
4 net_3281:3 0.0758
5 inst_1681:A1 0.0262
6 net_3281:4 0.3805
7 net_3281:5 0.2523
8 net_3281:6 0.0497
9 inst_1953:A2 0.4938
10 net_3281:7 0.2454
11 net_3281:8 0.4527
12 net_3281:9 0.2663
13 net_3281:10 0.3641
14 net_3281:11 0.1740
15 inst_1679:A1 0.2701
16 net_3281:12 0.0751
17 net_3281:13 0.1227
18 net_3281:14 0.0294
19 net_3281:15 0.0059
20 inst_2140:A 0.3552
21 net_3281:16 0.3594
22 net_3281:17 0.4902
23 net_3281:18 0.4716
24 net_3281:19 0.2112
25 inst_1949:A2 0.1762
26 net_3281:20 0.4669
27 net_3281:21 0.1932
28 net_3281:22 0.0675
29 net_3281:23 0.0053
30 net_3281:24 0.1459
31 inst_1680:A1 0.0437
32 net_3281:25 0.1669
33 net_3281:26 0.4800
34 net_3281:27 0.4518
35 net_3281:28 0.0570
36 net_3281:29 0.4909
37 inst_2530:A 0.0572
*RES
2 TAUGATE_3323:Z net_3281:1 0.3812
3 net_3281:1 net_3281:2 0.0656
4 net_3281:2 net_3281:3 0.1550
5 net_3281:3 inst_1681:A1 0.0047
6 net_3281:1 net_3281:4 0.3913
7 net_3281:4 net_3281:5 0.2131
8 net_3281:5 net_3281:6 0.3201
9 net_3281:6 inst_1953:A2 0.0320
10 net_3281:5 net_3281:7 0.3351
11 net_3281:7 net_3281:8 0.4105
12 net_3281:8 net_3281:9 0.3004
13 net_3281:9 net_3281:10 0.3665
14 net_3281:10 net_3281:11 0.1341
15 net_3281:11 inst_1679:A1 0.0859
16 net_3281:4 net_3281:12 0.3839
17 net_3281:12 net_3281:13 0.1840
18 net_3281:13 net_3281:14 0.4010
19 net_3281:14 net_3281:15 0.3573
20 net_3281:15 inst_2140:A 0.4559
21 net_3281:5 net_3281:16 0.1166
22 net_3281:16 net_3281:17 0.1660
23 net_3281:17 net_3281:18 0.2177
24 net_3281:18 net_3281:19 0.2908
25 net_3281:19 inst_1949:A2 0.3318
26 net_3281:13 net_3281:20 0.4598
27 net_3281:20 net_3281:21 0.3838
28 net_3281:21 net_3281:22 0.2033
29 net_3281:22 net_3281:23 0.3263
30 net_3281:23 net_3281:24 0.4574
31 net_3281:24 inst_1680:A1 0.4683
32 net_3281:7 net_3281:25 0.5008
33 net_3281:25 net_3281:26 0.1013
34 net_3281:26 net_3281:27 0.2457
35 net_3281:27 net_3281:28 0.4210
36 net_3281:28 net_3281:29 0.2594
37 net_3281:29 inst_2530:A 0.3565
*END

*D_NET TAUNET_1407 2.3187
*CONN
*I inst_827:ZN O
*I TAUGATE_1407:A I
*CAP
1 inst_827:ZN 0.4309
2 TAUNET_1407:1 0.2931
3 TAUNET_1407:2 0.2848
4 TAUNET_1407:3 0.2246
5 TAUNET_1407:4 0.3320
6 TAUNET_1407:5 0.3870
7 TAUGATE_1407:A 0.3663
*RES
2 inst_827:ZN TAUNET_1407:1 0.1512
3 TAUNET_1407:1 TAUNET_1407:2 0.1368
4 TAUNET_1407:2 TAUNET_1407:3 0.4493
5 TAUNET_1407:3 TAUNET_1407:4 0.4663
6 TAUNET_1407:4 TAUNET_1407:5 0.2866
7 TAUNET_1407:5 TAUGATE_1407:A 0.1873
*END

*D_NET net_3949 1.7258
*CONN
*I TAUGATE_605:Z O
*I inst_2168:A I
*CAP
1 TAUGATE_605:Z 0.3589
2 net_3949:1 0.4844
3 net_3949:2 0.0401
4 net_3949:3 0.2861
5 net_3949:4 0.1883
6 net_3949:5 0.3075
7 inst_2168:A 0.0604
*RES
2 TAUGATE_605:Z net_3949:1 0.3908
3 net_3949:1 net_3949:2 0.2921
4 net_3949:2 net_3949:3 0.4162
5 net_3949:3 net_3949:4 0.1285
6 net_3949:4 net_3949:5 0.0491
7 net_3949:5 inst_2168:A 0.3511
*END

*D_NET net_3134 6.3699
*CONN
*I TAUGATE_3201:Z O
*I inst_3618:B1 I
*I inst_3527:A2 I
*I inst_3746:A2 I
*I inst_3812:B2 I
*I inst_3510:B2 I
*CAP
1 TAUGATE_3201:Z 0.3010
2 net_3134:1 0.0492
3 net_3134:2 0.2707
4 inst_3746:A2 0.0711
5 net_3134:3 0.3648
6 net_3134:4 0.4404
7 net_3134:5 0.3187
8 net_3134:6 0.4272
9 net_3134:7 0.0224
10 inst_3527:A2 0.4026
11 net_3134:8 0.1530
12 net_3134:9 0.2582
13 net_3134:10 0.4484
14 inst_3618:B1 0.0762
15 net_3134:11 0.2972
16 net_3134:12 0.3936
17 net_3134:13 0.4880
18 net_3134:14 0.4169
19 net_3134:15 0.3167
20 inst_3812:B2 0.3376
21 net_3134:16 0.1251
22 net_3134:17 0.0048
23 net_3134:18 0.3126
24 net_3134:19 0.0195
25 inst_3510:B2 0.0541
*RES
2 TAUGATE_3201:Z net_3134:1 0.2365
3 net_3134:1 net_3134:2 0.0021
4 net_3134:2 inst_3746:A2 0.2080
5 net_3134:2 net_3134:3 0.2784
6 net_3134:3 net_3134:4 0.1803
7 net_3134:4 net_3134:5 0.0882
8 net_3134:5 net_3134:6 0.2924
9 net_3134:6 net_3134:7 0.4780
10 net_3134:7 inst_3527:A2 0.3510
11 net_3134:2 net_3134:8 0.1986
12 net_3134:8 net_3134:9 0.3922
13 net_3134:9 net_3134:10 0.3950
14 net_3134:10 inst_3618:B1 0.2666
15 net_3134:9 net_3134:11 0.1073
16 net_3134:11 net_3134:12 0.3579
17 net_3134:12 net_3134:13 0.1300
18 net_3134:13 net_3134:14 0.3795
19 net_3134:14 net_3134:15 0.2362
20 net_3134:15 inst_3812:B2 0.1908
21 net_3134:6 net_3134:16 0.3700
22 net_3134:16 net_3134:17 0.3260
23 net_3134:17 net_3134:18 0.3466
24 net_3134:18 net_3134:19 0.4948
25 net_3134:19 inst_3510:B2 0.4038
*END

*D_NET net_1720 1.1917
*CONN
*I TAUGATE_3632:Z O
*I inst_739:A I
*CAP
1 TAUGATE_3632:Z 0.0063
2 net_1720:1 0.0915
3 net_1720:2 0.4619
4 net_1720:3 0.1065
5 net_1720:4 0.1990
6 net_1720:5 0.2576
7 inst_739:A 0.0690
*RES
2 TAUGATE_3632:Z net_1720:1 0.2231
3 net_1720:1 net_1720:2 0.2934
4 net_1720:2 net_1720:3 0.0661
5 net_1720:3 net_1720:4 0.0281
6 net_1720:4 net_1720:5 0.1011
7 net_1720:5 inst_739:A 0.2539
*END

*D_NET TAUNET_439 1.8936
*CONN
*I inst_4130:ZN O
*I TAUGATE_439:A I
*CAP
1 inst_4130:ZN 0.1980
2 TAUNET_439:1 0.1282
3 TAUNET_439:2 0.2766
4 TAUNET_439:3 0.4045
5 TAUNET_439:4 0.4267
6 TAUGATE_439:A 0.4596
*RES
2 inst_4130:ZN TAUNET_439:1 0.3295
3 TAUNET_439:1 TAUNET_439:2 0.4724
4 TAUNET_439:2 TAUNET_439:3 0.4631
5 TAUNET_439:3 TAUNET_439:4 0.0407
6 TAUNET_439:4 TAUGATE_439:A 0.4130
*END

*D_NET net_3818 1.7936
*CONN
*I TAUGATE_2502:Z O
*I inst_108:A I
*I inst_3495:B2 I
*CAP
1 TAUGATE_2502:Z 0.0714
2 net_3818:1 0.2588
3 net_3818:2 0.0339
4 net_3818:3 0.0519
5 inst_3495:B2 0.4874
6 net_3818:4 0.1540
7 net_3818:5 0.0325
8 net_3818:6 0.0924
9 net_3818:7 0.1850
10 net_3818:8 0.1516
11 inst_108:A 0.2746
*RES
2 TAUGATE_2502:Z net_3818:1 0.0374
3 net_3818:1 net_3818:2 0.2489
4 net_3818:2 net_3818:3 0.2584
5 net_3818:3 inst_3495:B2 0.0346
6 net_3818:3 net_3818:4 0.4228
7 net_3818:4 net_3818:5 0.1417
8 net_3818:5 net_3818:6 0.3754
9 net_3818:6 net_3818:7 0.2016
10 net_3818:7 net_3818:8 0.0068
11 net_3818:8 inst_108:A 0.2001
*END

*D_NET TAUNET_895 1.0932
*CONN
*I inst_2146:ZN O
*I TAUGATE_895:A I
*CAP
1 inst_2146:ZN 0.4926
2 TAUNET_895:1 0.3810
3 TAUGATE_895:A 0.2195
*RES
2 inst_2146:ZN TAUNET_895:1 0.2042
3 TAUNET_895:1 TAUGATE_895:A 0.2030
*END

*D_NET TAUNET_859 1.1297
*CONN
*I inst_209:ZN O
*I TAUGATE_859:A I
*CAP
1 inst_209:ZN 0.4413
2 TAUNET_859:1 0.4042
3 TAUNET_859:2 0.0451
4 TAUGATE_859:A 0.2391
*RES
2 inst_209:ZN TAUNET_859:1 0.0321
3 TAUNET_859:1 TAUNET_859:2 0.4146
4 TAUNET_859:2 TAUGATE_859:A 0.0857
*END

*D_NET net_3434 1.3928
*CONN
*I TAUGATE_164:Z O
*I inst_1124:A1 I
*CAP
1 TAUGATE_164:Z 0.2245
2 net_3434:1 0.0551
3 net_3434:2 0.1877
4 net_3434:3 0.0973
5 net_3434:4 0.4235
6 net_3434:5 0.1903
7 inst_1124:A1 0.2143
*RES
2 TAUGATE_164:Z net_3434:1 0.0701
3 net_3434:1 net_3434:2 0.2421
4 net_3434:2 net_3434:3 0.4634
5 net_3434:3 net_3434:4 0.2497
6 net_3434:4 net_3434:5 0.2766
7 net_3434:5 inst_1124:A1 0.3086
*END

*D_NET net_2051 8.7356
*CONN
*I TAUGATE_3662:Z O
*I inst_3751:A2 I
*I inst_362:B2 I
*I inst_3807:B2 I
*I inst_3774:C2 I
*I inst_3518:B2 I
*I inst_3892:B2 I
*I inst_3746:B2 I
*CAP
1 TAUGATE_3662:Z 0.4838
2 net_2051:1 0.3539
3 inst_3774:C2 0.3446
4 net_2051:2 0.1374
5 net_2051:3 0.1713
6 net_2051:4 0.2153
7 net_2051:5 0.3119
8 net_2051:6 0.4918
9 inst_362:B2 0.3583
10 net_2051:7 0.4721
11 net_2051:8 0.1185
12 net_2051:9 0.4585
13 inst_3807:B2 0.3703
14 net_2051:10 0.1640
15 net_2051:11 0.1778
16 net_2051:12 0.3155