*SPEF "IEEE 1481-1998"
*DESIGN "changes"
*DATE "Tue Dec 02 20:32:59 2014"
*VENDOR "TAU 2015 Contest"
*PROGRAM "Benchmark Parasitic Generator"
*VERSION "0.0"
*DESIGN_FLOW "NETLIST_TYPE_VERILOG"
*DIVIDER /
*DELIMITER :
*BUS_DELIMITER [ ]
*T_UNIT 1 PS
*C_UNIT 1 FF
*R_UNIT 1 KOHM
*L_UNIT 1 UH

*D_NET TAUNET_13 1.7439
*CONN
*I inst_3659:ZN O
*I TAUGATE_13:A I
*CAP
1 inst_3659:ZN 0.2611
2 TAUNET_13:1 0.4098
3 TAUNET_13:2 0.5009
4 TAUNET_13:3 0.2843
5 TAUGATE_13:A 0.2878
*RES
2 inst_3659:ZN TAUNET_13:1 0.1659
3 TAUNET_13:1 TAUNET_13:2 0.2742
4 TAUNET_13:2 TAUNET_13:3 0.3494
5 TAUNET_13:3 TAUGATE_13:A 0.1485
*END

*D_NET TAUNET_12 1.3760
*CONN
*I inst_1502:ZN O
*I TAUGATE_12:A I
*CAP
1 inst_1502:ZN 0.2110
2 TAUNET_12:1 0.3070
3 TAUNET_12:2 0.3583
4 TAUNET_12:3 0.1395
5 TAUNET_12:4 0.0646
6 TAUNET_12:5 0.0794
7 TAUGATE_12:A 0.2161
*RES
2 inst_1502:ZN TAUNET_12:1 0.1614
3 TAUNET_12:1 TAUNET_12:2 0.3312
4 TAUNET_12:2 TAUNET_12:3 0.3755
5 TAUNET_12:3 TAUNET_12:4 0.4644
6 TAUNET_12:4 TAUNET_12:5 0.4559
7 TAUNET_12:5 TAUGATE_12:A 0.4050
*END

*D_NET net_2559 0.4849
*CONN
*I TAUGATE_54:Z O
*I inst_373:A I
*CAP
1 TAUGATE_54:Z 0.1670
2 net_2559:1 0.2440
3 net_2559:2 0.0332
4 inst_373:A 0.0406
*RES
2 TAUGATE_54:Z net_2559:1 0.2732
3 net_2559:1 net_2559:2 0.0073
4 net_2559:2 inst_373:A 0.1308
*END

*D_NET net_2807 1.8161
*CONN
*I TAUGATE_12:Z O
*I inst_3328:D I
*CAP
1 TAUGATE_12:Z 0.2909
2 net_2807:1 0.0740
3 net_2807:2 0.4871
4 net_2807:3 0.4951
5 net_2807:4 0.4125
6 inst_3328:D 0.0565
*RES
2 TAUGATE_12:Z net_2807:1 0.1285
3 net_2807:1 net_2807:2 0.0292
4 net_2807:2 net_2807:3 0.2926
5 net_2807:3 net_2807:4 0.4507
6 net_2807:4 inst_3328:D 0.3356
*END

*D_NET net_1075 1.9602
*CONN
*I TAUGATE_56:Z O
*I inst_68:B I
*CAP
1 TAUGATE_56:Z 0.3845
2 net_1075:1 0.3056
3 net_1075:2 0.3464
4 net_1075:3 0.0305
5 net_1075:4 0.2383
6 net_1075:5 0.4020
7 inst_68:B 0.2529
*RES
2 TAUGATE_56:Z net_1075:1 0.2665
3 net_1075:1 net_1075:2 0.4354
4 net_1075:2 net_1075:3 0.1977
5 net_1075:3 net_1075:4 0.0788
6 net_1075:4 net_1075:5 0.3276
7 net_1075:5 inst_68:B 0.3833
*END

*D_NET net_2664 0.8670
*CONN
*I TAUGATE_23:Z O
*I inst_3801:A I
*CAP
1 TAUGATE_23:Z 0.0716
2 net_2664:1 0.1922
3 net_2664:2 0.2805
4 net_2664:3 0.1322
5 inst_3801:A 0.1905
*RES
2 TAUGATE_23:Z net_2664:1 0.4017
3 net_2664:1 net_2664:2 0.4680
4 net_2664:2 net_2664:3 0.2976
5 net_2664:3 inst_3801:A 0.2331
*END

*D_NET net_1999 1.3358
*CONN
*I TAUGATE_20:Z O
*I inst_801:B I
*CAP
1 TAUGATE_20:Z 0.3943
2 net_1999:1 0.1955
3 net_1999:2 0.1868
4 net_1999:3 0.4889
5 inst_801:B 0.0703
*RES
2 TAUGATE_20:Z net_1999:1 0.3298
3 net_1999:1 net_1999:2 0.4131
4 net_1999:2 net_1999:3 0.3310
5 net_1999:3 inst_801:B 0.2621
*END

*D_NET net_392 0.9833
*CONN
*I TAUGATE_40:Z O
*I inst_1474:A2 I
*CAP
1 TAUGATE_40:Z 0.1808
2 net_392:1 0.3990
3 inst_1474:A2 0.4035
*RES
2 TAUGATE_40:Z net_392:1 0.0219
3 net_392:1 inst_1474:A2 0.0830
*END

*D_NET TAUNET_35 1.6212
*CONN
*I inst_204:ZN O
*I TAUGATE_35:A I
*CAP
1 inst_204:ZN 0.1250
2 TAUNET_35:1 0.4976
3 TAUNET_35:2 0.3591
4 TAUNET_35:3 0.2780
5 TAUNET_35:4 0.2022
6 TAUGATE_35:A 0.1593
*RES
2 inst_204:ZN TAUNET_35:1 0.4382
3 TAUNET_35:1 TAUNET_35:2 0.3498
4 TAUNET_35:2 TAUNET_35:3 0.4055
5 TAUNET_35:3 TAUNET_35:4 0.4519
6 TAUNET_35:4 TAUGATE_35:A 0.4658
*END

*D_NET net_2712 1.1222
*CONN
*I TAUGATE_32:Z O
*I inst_882:A3 I
*CAP
1 TAUGATE_32:Z 0.4019
2 net_2712:1 0.2503
3 inst_882:A3 0.4700
*RES
2 TAUGATE_32:Z net_2712:1 0.3789
3 net_2712:1 inst_882:A3 0.3545
*END

*D_NET net_2253 1.0398
*CONN
*I TAUGATE_29:Z O
*I inst_3380:D I
*CAP
1 TAUGATE_29:Z 0.4316
2 net_2253:1 0.4734
3 net_2253:2 0.0376
4 inst_3380:D 0.0972
*RES
2 TAUGATE_29:Z net_2253:1 0.3594
3 net_2253:1 net_2253:2 0.0525
4 net_2253:2 inst_3380:D 0.3248
*END

*D_NET x639 2.5362
*CONN
*I TAUGATE_25:Z O
*P x639 O
*I inst_737:A I
*CAP
1 TAUGATE_25:Z 0.1267
2 x639:1 0.2434
3 x639:2 0.3726
4 x639:3 0.2980
5 x639:4 0.2454
6 inst_737:A 0.4670
7 x639:5 0.3699
8 x639 0.4131
*RES
2 TAUGATE_25:Z x639:1 0.1921
3 x639:1 x639:2 0.1376
4 x639:2 x639:3 0.4443
5 x639:3 x639:4 0.1288
6 x639:4 inst_737:A 0.3022
7 x639:1 x639:5 0.4004
8 x639:5 x639 0.4814
*END

*D_NET net_2393 0.7257
*CONN
*I TAUGATE_51:Z O
*I inst_505:A I
*CAP
1 TAUGATE_51:Z 0.3915
2 net_2393:1 0.3089
3 inst_505:A 0.0253
*RES
2 TAUGATE_51:Z net_2393:1 0.3105
3 net_2393:1 inst_505:A 0.1881
*END

*D_NET TAUNET_46 1.4805
*CONN
*I inst_1079:ZN O
*I TAUGATE_46:A I
*CAP
1 inst_1079:ZN 0.1592
2 TAUNET_46:1 0.2761
3 TAUNET_46:2 0.3643
4 TAUNET_46:3 0.2288
5 TAUNET_46:4 0.0666
6 TAUGATE_46:A 0.3854
*RES
2 inst_1079:ZN TAUNET_46:1 0.3580
3 TAUNET_46:1 TAUNET_46:2 0.3774
4 TAUNET_46:2 TAUNET_46:3 0.2731
5 TAUNET_46:3 TAUNET_46:4 0.1525
6 TAUNET_46:4 TAUGATE_46:A 0.0518
*END

*D_NET TAUNET_24 1.2665
*CONN
*I inst_3720:ZN O
*I TAUGATE_24:A I
*CAP
1 inst_3720:ZN 0.2154
2 TAUNET_24:1 0.1648
3 TAUNET_24:2 0.1855
4 TAUNET_24:3 0.0112
5 TAUNET_24:4 0.3530
6 TAUNET_24:5 0.1128
7 TAUGATE_24:A 0.2239
*RES
2 inst_3720:ZN TAUNET_24:1 0.0917
3 TAUNET_24:1 TAUNET_24:2 0.4230
4 TAUNET_24:2 TAUNET_24:3 0.1494
5 TAUNET_24:3 TAUNET_24:4 0.3290
6 TAUNET_24:4 TAUNET_24:5 0.1620
7 TAUNET_24:5 TAUGATE_24:A 0.0029
*END

*D_NET TAUNET_16 1.0297
*CONN
*I inst_413:ZN O
*I TAUGATE_16:A I
*CAP
1 inst_413:ZN 0.1903
2 TAUNET_16:1 0.3484
3 TAUNET_16:2 0.0801
4 TAUNET_16:3 0.1392
5 TAUNET_16:4 0.1891
6 TAUNET_16:5 0.0464
7 TAUGATE_16:A 0.0364
*RES
2 inst_413:ZN TAUNET_16:1 0.0279
3 TAUNET_16:1 TAUNET_16:2 0.4104
4 TAUNET_16:2 TAUNET_16:3 0.0649
5 TAUNET_16:3 TAUNET_16:4 0.0510
6 TAUNET_16:4 TAUNET_16:5 0.1600
7 TAUNET_16:5 TAUGATE_16:A 0.1748
*END

*D_NET net_3311 1.6599
*CONN
*I TAUGATE_38:Z O
*I inst_52:A I
*CAP
1 TAUGATE_38:Z 0.1076
2 net_3311:1 0.3388
3 net_3311:2 0.4657
4 net_3311:3 0.3595
5 net_3311:4 0.2471
6 net_3311:5 0.0832
7 inst_52:A 0.0580
*RES
2 TAUGATE_38:Z net_3311:1 0.3736
3 net_3311:1 net_3311:2 0.0395
4 net_3311:2 net_3311:3 0.3644
5 net_3311:3 net_3311:4 0.0829
6 net_3311:4 net_3311:5 0.1977
7 net_3311:5 inst_52:A 0.4694
*END

*D_NET TAUNET_31 2.0853
*CONN
*I inst_11:Z O
*I TAUGATE_31:A I
*CAP
1 inst_11:Z 0.3882
2 TAUNET_31:1 0.0413
3 TAUNET_31:2 0.4651
4 TAUNET_31:3 0.4065
5 TAUNET_31:4 0.3164
6 TAUNET_31:5 0.3513
7 TAUGATE_31:A 0.1165
*RES
2 inst_11:Z TAUNET_31:1 0.0986
3 TAUNET_31:1 TAUNET_31:2 0.2243
4 TAUNET_31:2 TAUNET_31:3 0.1286
5 TAUNET_31:3 TAUNET_31:4 0.4269
6 TAUNET_31:4 TAUNET_31:5 0.2482
7 TAUNET_31:5 TAUGATE_31:A 0.2195
*END

*D_NET TAUNET_25 1.7569
*CONN
*I inst_3379:Q O
*I TAUGATE_25:A I
*CAP
1 inst_3379:Q 0.4091
2 TAUNET_25:1 0.3587
3 TAUNET_25:2 0.1869
4 TAUNET_25:3 0.4974
5 TAUGATE_25:A 0.3047
*RES
2 inst_3379:Q TAUNET_25:1 0.1200
3 TAUNET_25:1 TAUNET_25:2 0.4969
4 TAUNET_25:2 TAUNET_25:3 0.1210
5 TAUNET_25:3 TAUGATE_25:A 0.1733
*END

*D_NET net_1405 1.1896
*CONN
*I TAUGATE_44:Z O
*I inst_1203:A1 I
*CAP
1 TAUGATE_44:Z 0.0283
2 net_1405:1 0.2945
3 net_1405:2 0.3177
4 net_1405:3 0.2101
5 inst_1203:A1 0.3390
*RES
2 TAUGATE_44:Z net_1405:1 0.2046
3 net_1405:1 net_1405:2 0.3404
4 net_1405:2 net_1405:3 0.1317
5 net_1405:3 inst_1203:A1 0.3617
*END

*D_NET TAUNET_27 1.2055
*CONN
*I inst_3494:ZN O
*I TAUGATE_27:A I
*CAP
1 inst_3494:ZN 0.3629
2 TAUNET_27:1 0.3900
3 TAUNET_27:2 0.0557
4 TAUNET_27:3 0.1253
5 TAUGATE_27:A 0.2716
*RES
2 inst_3494:ZN TAUNET_27:1 0.3735
3 TAUNET_27:1 TAUNET_27:2 0.1079
4 TAUNET_27:2 TAUNET_27:3 0.3323
5 TAUNET_27:3 TAUGATE_27:A 0.2907
*END

*D_NET TAUNET_28 1.4383
*CONN
*I inst_2013:ZN O
*I TAUGATE_28:A I
*CAP
1 inst_2013:ZN 0.4966
2 TAUNET_28:1 0.2702
3 TAUNET_28:2 0.2135
4 TAUNET_28:3 0.0419
5 TAUNET_28:4 0.2773
6 TAUNET_28:5 0.0903
7 TAUGATE_28:A 0.0485
*RES
2 inst_2013:ZN TAUNET_28:1 0.4602
3 TAUNET_28:1 TAUNET_28:2 0.4262
4 TAUNET_28:2 TAUNET_28:3 0.2009
5 TAUNET_28:3 TAUNET_28:4 0.3114
6 TAUNET_28:4 TAUNET_28:5 0.3090
7 TAUNET_28:5 TAUGATE_28:A 0.3972
*END

*D_NET net_572 1.1430
*CONN
*I TAUGATE_13:Z O
*I inst_1223:A3 I
*CAP
1 TAUGATE_13:Z 0.2443
2 net_572:1 0.3734
3 net_572:2 0.1567
4 net_572:3 0.1247
5 inst_1223:A3 0.2439
*RES
2 TAUGATE_13:Z net_572:1 0.2588
3 net_572:1 net_572:2 0.4474
4 net_572:2 net_572:3 0.3528
5 net_572:3 inst_1223:A3 0.0472
*END

*D_NET TAUNET_57 1.3929
*CONN
*I inst_904:ZN O
*I TAUGATE_57:A I
*CAP
1 inst_904:ZN 0.1981
2 TAUNET_57:1 0.0169
3 TAUNET_57:2 0.4026
4 TAUNET_57:3 0.4684
5 TAUNET_57:4 0.2490
6 TAUGATE_57:A 0.0579
*RES
2 inst_904:ZN TAUNET_57:1 0.0423
3 TAUNET_57:1 TAUNET_57:2 0.2861
4 TAUNET_57:2 TAUNET_57:3 0.4278
5 TAUNET_57:3 TAUNET_57:4 0.3875
6 TAUNET_57:4 TAUGATE_57:A 0.4796
*END

*D_NET net_3630 2.9807
*CONN
*I TAUGATE_45:Z O
*I inst_1349:A1 I
*I inst_3038:A I
*CAP
1 TAUGATE_45:Z 0.1554
2 net_3630:1 0.4380
3 inst_3038:A 0.4130
4 net_3630:2 0.2438
5 net_3630:3 0.2969
6 net_3630:4 0.3091
7 net_3630:5 0.5006
8 net_3630:6 0.2264
9 inst_1349:A1 0.3973
*RES
2 TAUGATE_45:Z net_3630:1 0.4990
3 net_3630:1 inst_3038:A 0.2134
4 net_3630:1 net_3630:2 0.2044
5 net_3630:2 net_3630:3 0.1531
6 net_3630:3 net_3630:4 0.3886
7 net_3630:4 net_3630:5 0.2618
8 net_3630:5 net_3630:6 0.2468
9 net_3630:6 inst_1349:A1 0.4002
*END

*D_NET TAUNET_37 0.7125
*CONN
*I inst_3825:ZN O
*I TAUGATE_37:A I
*CAP
1 inst_3825:ZN 0.1857
2 TAUNET_37:1 0.0882
3 TAUGATE_37:A 0.4386
*RES
2 inst_3825:ZN TAUNET_37:1 0.2715
3 TAUNET_37:1 TAUGATE_37:A 0.0199
*END

*D_NET TAUNET_32 0.5520
*CONN
*I inst_158:ZN O
*I TAUGATE_32:A I
*CAP
1 inst_158:ZN 0.1459
2 TAUNET_32:1 0.1026
3 TAUNET_32:2 0.1939
4 TAUGATE_32:A 0.1095
*RES
2 inst_158:ZN TAUNET_32:1 0.0212
3 TAUNET_32:1 TAUNET_32:2 0.1417
4 TAUNET_32:2 TAUGATE_32:A 0.2190
*END

*D_NET TAUNET_38 1.5644
*CONN
*I inst_1962:ZN O
*I TAUGATE_38:A I
*CAP
1 inst_1962:ZN 0.1138
2 TAUNET_38:1 0.3663
3 TAUNET_38:2 0.2540
4 TAUNET_38:3 0.0526
5 TAUNET_38:4 0.2388
6 TAUNET_38:5 0.1787
7 TAUGATE_38:A 0.3603
*RES
2 inst_1962:ZN TAUNET_38:1 0.0603
3 TAUNET_38:1 TAUNET_38:2 0.0863
4 TAUNET_38:2 TAUNET_38:3 0.3102
5 TAUNET_38:3 TAUNET_38:4 0.1239
6 TAUNET_38:4 TAUNET_38:5 0.2473
7 TAUNET_38:5 TAUGATE_38:A 0.0055
*END

*D_NET net_1881 1.2459
*CONN
*I TAUGATE_14:Z O
*I inst_3749:A2 I
*CAP
1 TAUGATE_14:Z 0.2412
2 net_1881:1 0.4441
3 net_1881:2 0.4218
4 net_1881:3 0.0848
5 net_1881:4 0.0266
6 inst_3749:A2 0.0274
*RES
2 TAUGATE_14:Z net_1881:1 0.4218
3 net_1881:1 net_1881:2 0.2061
4 net_1881:2 net_1881:3 0.2110
5 net_1881:3 net_1881:4 0.4583
6 net_1881:4 inst_3749:A2 0.3985
*END

*D_NET TAUNET_40 1.9898
*CONN
*I inst_456:ZN O
*I TAUGATE_40:A I
*CAP
1 inst_456:ZN 0.0725
2 TAUNET_40:1 0.3124
3 TAUNET_40:2 0.3685
4 TAUNET_40:3 0.4317
5 TAUNET_40:4 0.1801
6 TAUNET_40:5 0.2826
7 TAUGATE_40:A 0.3420
*RES
2 inst_456:ZN TAUNET_40:1 0.0965
3 TAUNET_40:1 TAUNET_40:2 0.2555
4 TAUNET_40:2 TAUNET_40:3 0.1304
5 TAUNET_40:3 TAUNET_40:4 0.3675
6 TAUNET_40:4 TAUNET_40:5 0.4634
7 TAUNET_40:5 TAUGATE_40:A 0.2869
*END

*D_NET TAUNET_20 0.5511
*CONN
*I inst_3763:ZN O
*I TAUGATE_20:A I
*CAP
1 inst_3763:ZN 0.1182
2 TAUNET_20:1 0.0608
3 TAUGATE_20:A 0.3721
*RES
2 inst_3763:ZN TAUNET_20:1 0.4648
3 TAUNET_20:1 TAUGATE_20:A 0.2376
*END

*D_NET net_3553 1.2804
*CONN
*I TAUGATE_15:Z O
*I inst_367:B1 I
*I inst_600:B1 I
*CAP
1 TAUGATE_15:Z 0.3081
2 net_3553:1 0.0264
3 net_3553:2 0.2502
4 inst_367:B1 0.2506
5 net_3553:3 0.2747
6 inst_600:B1 0.1704
*RES
2 TAUGATE_15:Z net_3553:1 0.4486
3 net_3553:1 net_3553:2 0.0641
4 net_3553:2 inst_367:B1 0.0138
5 net_3553:1 net_3553:3 0.2303
6 net_3553:3 inst_600:B1 0.0121
*END

*D_NET net_3055 0.6221
*CONN
*I TAUGATE_47:Z O
*I inst_2434:A I
*CAP
1 TAUGATE_47:Z 0.0267
2 net_3055:1 0.1079
3 net_3055:2 0.3621
4 inst_2434:A 0.1254
*RES
2 TAUGATE_47:Z net_3055:1 0.3490
3 net_3055:1 net_3055:2 0.4751
4 net_3055:2 inst_2434:A 0.3195
*END

*D_NET TAUNET_14 1.2894
*CONN
*I inst_288:ZN O
*I TAUGATE_14:A I
*CAP
1 inst_288:ZN 0.2505
2 TAUNET_14:1 0.3990
3 TAUNET_14:2 0.0185
4 TAUNET_14:3 0.3777
5 TAUGATE_14:A 0.2437
*RES
2 inst_288:ZN TAUNET_14:1 0.3641
3 TAUNET_14:1 TAUNET_14:2 0.1411
4 TAUNET_14:2 TAUNET_14:3 0.2452
5 TAUNET_14:3 TAUGATE_14:A 0.2723
*END

*D_NET net_827 0.3445
*CONN
*I TAUGATE_57:Z O
*I inst_1217:A3 I
*CAP
1 TAUGATE_57:Z 0.2449
2 net_827:1 0.0917
3 inst_1217:A3 0.0078
*RES
2 TAUGATE_57:Z net_827:1 0.0227
3 net_827:1 inst_1217:A3 0.0264
*END

*D_NET x409 2.6384
*CONN
*I TAUGATE_55:Z O
*P x409 O
*I inst_3878:C2 I
*CAP
1 TAUGATE_55:Z 0.1906
2 x409:1 0.0937
3 x409:2 0.2944
4 x409 0.3987
5 x409:3 0.1157
6 x409:4 0.1901
7 x409:5 0.2138
8 x409:6 0.5008
9 x409:7 0.2979
10 inst_3878:C2 0.3428
*RES
2 TAUGATE_55:Z x409:1 0.0209
3 x409:1 x409:2 0.1182
4 x409:2 x409 0.1067
5 x409:2 x409:3 0.2325
6 x409:3 x409:4 0.2733
7 x409:4 x409:5 0.1266
8 x409:5 x409:6 0.3814
9 x409:6 x409:7 0.1363
10 x409:7 inst_3878:C2 0.3277
*END

*D_NET net_785 1.7680
*CONN
*I TAUGATE_34:Z O
*I inst_809:B I
*CAP
1 TAUGATE_34:Z 0.4503
2 net_785:1 0.1603
3 net_785:2 0.4423
4 net_785:3 0.1159
5 net_785:4 0.4527
6 inst_809:B 0.1465
*RES
2 TAUGATE_34:Z net_785:1 0.1463
3 net_785:1 net_785:2 0.4621
4 net_785:2 net_785:3 0.4065
5 net_785:3 net_785:4 0.0227
6 net_785:4 inst_809:B 0.2236
*END

*D_NET TAUNET_49 1.0395
*CONN
*I inst_395:ZN O
*I TAUGATE_49:A I
*CAP
1 inst_395:ZN 0.0715
2 TAUNET_49:1 0.1861
3 TAUNET_49:2 0.4367
4 TAUGATE_49:A 0.3452
*RES
2 inst_395:ZN TAUNET_49:1 0.0313
3 TAUNET_49:1 TAUNET_49:2 0.1217
4 TAUNET_49:2 TAUGATE_49:A 0.0111
*END

*D_NET net_2821 1.2561
*CONN
*I TAUGATE_58:Z O
*I inst_3332:D I
*CAP
1 TAUGATE_58:Z 0.0613
2 net_2821:1 0.4407
3 net_2821:2 0.4978
4 inst_3332:D 0.2563
*RES
2 TAUGATE_58:Z net_2821:1 0.2595
3 net_2821:1 net_2821:2 0.2603
4 net_2821:2 inst_3332:D 0.2874
*END

*D_NET net_1512 1.7103
*CONN
*I TAUGATE_52:Z O
*I inst_4020:B I
*I inst_2720:A I
*CAP
1 TAUGATE_52:Z 0.2768
2 net_1512:1 0.2053
3 net_1512:2 0.2140
4 inst_2720:A 0.3306
5 net_1512:3 0.4103
6 net_1512:4 0.0845
7 inst_4020:B 0.1888
*RES
2 TAUGATE_52:Z net_1512:1 0.1569
3 net_1512:1 net_1512:2 0.2580
4 net_1512:2 inst_2720:A 0.2138
5 net_1512:1 net_1512:3 0.1436
6 net_1512:3 net_1512:4 0.1762
7 net_1512:4 inst_4020:B 0.4748
*END

*D_NET TAUNET_50 1.1069
*CONN
*I inst_1339:ZN O
*I TAUGATE_50:A I
*CAP
1 inst_1339:ZN 0.0407
2 TAUNET_50:1 0.0491
3 TAUNET_50:2 0.4137
4 TAUNET_50:3 0.3046
5 TAUGATE_50:A 0.2987
*RES
2 inst_1339:ZN TAUNET_50:1 0.2640
3 TAUNET_50:1 TAUNET_50:2 0.1831
4 TAUNET_50:2 TAUNET_50:3 0.4110
5 TAUNET_50:3 TAUGATE_50:A 0.0191
*END

*D_NET TAUNET_23 1.9101
*CONN
*I inst_378:ZN O
*I TAUGATE_23:A I
*CAP
1 inst_378:ZN 0.4300
2 TAUNET_23:1 0.0787
3 TAUNET_23:2 0.2007
4 TAUNET_23:3 0.2971
5 TAUNET_23:4 0.4025
6 TAUGATE_23:A 0.5010
*RES
2 inst_378:ZN TAUNET_23:1 0.3538
3 TAUNET_23:1 TAUNET_23:2 0.4649
4 TAUNET_23:2 TAUNET_23:3 0.0482
5 TAUNET_23:3 TAUNET_23:4 0.1062
6 TAUNET_23:4 TAUGATE_23:A 0.2963
*END

*D_NET net_2720 1.3534
*CONN
*I TAUGATE_43:Z O
*I inst_1498:A2 I
*CAP
1 TAUGATE_43:Z 0.2002
2 net_2720:1 0.3761
3 net_2720:2 0.0616
4 net_2720:3 0.4298
5 inst_1498:A2 0.2857
*RES
2 TAUGATE_43:Z net_2720:1 0.2634
3 net_2720:1 net_2720:2 0.0470
4 net_2720:2 net_2720:3 0.0745
5 net_2720:3 inst_1498:A2 0.1738
*END

*D_NET net_3608 0.9060
*CONN
*I TAUGATE_24:Z O
*I inst_1248:A2 I
*CAP
1 TAUGATE_24:Z 0.4556
2 net_3608:1 0.0036
3 net_3608:2 0.1731
4 inst_1248:A2 0.2737
*RES
2 TAUGATE_24:Z net_3608:1 0.3095
3 net_3608:1 net_3608:2 0.4895
4 net_3608:2 inst_1248:A2 0.4033
*END

*D_NET TAUNET_39 1.7738
*CONN
*I inst_786:ZN O
*I TAUGATE_39:A I
*CAP
1 inst_786:ZN 0.3461
2 TAUNET_39:1 0.0418
3 TAUNET_39:2 0.3671
4 TAUNET_39:3 0.3815
5 TAUNET_39:4 0.1458
6 TAUGATE_39:A 0.4915
*RES
2 inst_786:ZN TAUNET_39:1 0.0683
3 TAUNET_39:1 TAUNET_39:2 0.2135
4 TAUNET_39:2 TAUNET_39:3 0.4484
5 TAUNET_39:3 TAUNET_39:4 0.1379
6 TAUNET_39:4 TAUGATE_39:A 0.1139
*END

*D_NET net_878 1.0254
*CONN
*I TAUGATE_21:Z O
*I inst_1212:A3 I
*CAP
1 TAUGATE_21:Z 0.0861
2 net_878:1 0.4806
3 net_878:2 0.3473
4 inst_1212:A3 0.1114
*RES
2 TAUGATE_21:Z net_878:1 0.0198
3 net_878:1 net_878:2 0.2366
4 net_878:2 inst_1212:A3 0.1100
*END

*D_NET TAUNET_51 1.2760
*CONN
*I inst_1623:ZN O
*I TAUGATE_51:A I
*CAP
1 inst_1623:ZN 0.3290
2 TAUNET_51:1 0.4236
3 TAUNET_51:2 0.3328
4 TAUGATE_51:A 0.1906
*RES
2 inst_1623:ZN TAUNET_51:1 0.5003
3 TAUNET_51:1 TAUNET_51:2 0.4347
4 TAUNET_51:2 TAUGATE_51:A 0.3044
*END

*D_NET net_3017 1.5228
*CONN
*I TAUGATE_42:Z O
*I inst_2943:A I
*CAP
1 TAUGATE_42:Z 0.0096
2 net_3017:1 0.2377
3 net_3017:2 0.2571
4 net_3017:3 0.3610
5 net_3017:4 0.0042
6 net_3017:5 0.2690
7 inst_2943:A 0.3841
*RES
2 TAUGATE_42:Z net_3017:1 0.3400
3 net_3017:1 net_3017:2 0.2352
4 net_3017:2 net_3017:3 0.3112
5 net_3017:3 net_3017:4 0.1345
6 net_3017:4 net_3017:5 0.4134
7 net_3017:5 inst_2943:A 0.0741
*END

*D_NET TAUNET_19 0.9047
*CONN
*I inst_101:ZN O
*I TAUGATE_19:A I
*CAP
1 inst_101:ZN 0.4891
2 TAUNET_19:1 0.2122
3 TAUGATE_19:A 0.2034
*RES
2 inst_101:ZN TAUNET_19:1 0.1253
3 TAUNET_19:1 TAUGATE_19:A 0.2112
*END

*D_NET TAUNET_34 0.7145
*CONN
*I inst_1319:ZN O
*I TAUGATE_34:A I
*CAP
1 inst_1319:ZN 0.1106
2 TAUNET_34:1 0.2644
3 TAUGATE_34:A 0.3395
*RES
2 inst_1319:ZN TAUNET_34:1 0.4160
3 TAUNET_34:1 TAUGATE_34:A 0.1311
*END

*D_NET TAUNET_54 0.5652
*CONN
*I inst_3819:ZN O
*I TAUGATE_54:A I
*CAP
1 inst_3819:ZN 0.0535
2 TAUNET_54:1 0.2939
3 TAUGATE_54:A 0.2177
*RES
2 inst_3819:ZN TAUNET_54:1 0.0520
3 TAUNET_54:1 TAUGATE_54:A 0.1787
*END

*D_NET net_692 3.4321
*CONN
*I TAUGATE_46:Z O
*I inst_226:A1 I
*I inst_4028:C1 I
*I inst_3987:B1 I
*CAP
1 TAUGATE_46:Z 0.2308
2 net_692:1 0.4154
3 net_692:2 0.4205
4 inst_4028:C1 0.1921
5 net_692:3 0.3943
6 net_692:4 0.0450
7 net_692:5 0.3586
8 inst_226:A1 0.1804
9 net_692:6 0.0277
10 net_692:7 0.2232
11 net_692:8 0.0700
12 net_692:9 0.3825
13 inst_3987:B1 0.4916
*RES
2 TAUGATE_46:Z net_692:1 0.3303
3 net_692:1 net_692:2 0.0500
4 net_692:2 inst_4028:C1 0.3450
5 net_692:2 net_692:3 0.2132
6 net_692:3 net_692:4 0.3448
7 net_692:4 net_692:5 0.2539
8 net_692:5 inst_226:A1 0.0169
9 net_692:3 net_692:6 0.0258
10 net_692:6 net_692:7 0.0722
11 net_692:7 net_692:8 0.0268
12 net_692:8 net_692:9 0.0274
13 net_692:9 inst_3987:B1 0.0955
*END

*D_NET TAUNET_44 0.7110
*CONN
*I inst_3612:ZN O
*I TAUGATE_44:A I
*CAP
1 inst_3612:ZN 0.0730
2 TAUNET_44:1 0.1500
3 TAUNET_44:2 0.2720
4 TAUNET_44:3 0.0605
5 TAUGATE_44:A 0.1555
*RES
2 inst_3612:ZN TAUNET_44:1 0.4347
3 TAUNET_44:1 TAUNET_44:2 0.2976
4 TAUNET_44:2 TAUNET_44:3 0.3531
5 TAUNET_44:3 TAUGATE_44:A 0.0316
*END

*D_NET net_209 1.2356
*CONN
*I TAUGATE_48:Z O
*I inst_3101:A I
*CAP
1 TAUGATE_48:Z 0.0755
2 net_209:1 0.3515
3 net_209:2 0.2983
4 net_209:3 0.4269
5 net_209:4 0.0493
6 inst_3101:A 0.0341
*RES
2 TAUGATE_48:Z net_209:1 0.3020
3 net_209:1 net_209:2 0.3389
4 net_209:2 net_209:3 0.4000
5 net_209:3 net_209:4 0.0188
6 net_209:4 inst_3101:A 0.4709
*END

*D_NET net_912 3.3166
*CONN
*I TAUGATE_18:Z O
*I inst_1828:A1 I
*I inst_3715:B2 I
*I inst_1806:A2 I
*CAP
1 TAUGATE_18:Z 0.0122
2 net_912:1 0.0936
3 net_912:2 0.3051
4 net_912:3 0.1197
5 inst_1806:A2 0.2956
6 net_912:4 0.0161
7 net_912:5 0.2047
8 net_912:6 0.3729
9 net_912:7 0.0610
10 inst_3715:B2 0.4010
11 net_912:8 0.3618
12 net_912:9 0.0820
13 net_912:10 0.2174
14 net_912:11 0.3638
15 inst_1828:A1 0.4097
*RES
2 TAUGATE_18:Z net_912:1 0.2210
3 net_912:1 net_912:2 0.0970
4 net_912:2 net_912:3 0.2798
5 net_912:3 inst_1806:A2 0.3150
6 net_912:2 net_912:4 0.2910
7 net_912:4 net_912:5 0.3768
8 net_912:5 net_912:6 0.3083
9 net_912:6 net_912:7 0.1250
10 net_912:7 inst_3715:B2 0.3526
11 net_912:6 net_912:8 0.2418
12 net_912:8 net_912:9 0.4080
13 net_912:9 net_912:10 0.3118
14 net_912:10 net_912:11 0.4981
15 net_912:11 inst_1828:A1 0.3134
*END

*D_NET net_376 5.6252
*CONN
*I TAUGATE_59:Z O
*I inst_2844:A I
*I inst_1428:A2 I
*I inst_1331:A1 I
*I inst_4052:A1 I
*I inst_1322:A1 I
*I inst_1235:A1 I
*CAP
1 TAUGATE_59:Z 0.1396
2 net_376:1 0.1278
3 inst_1322:A1 0.3093
4 net_376:2 0.0712
5 net_376:3 0.0044
6 net_376:4 0.1986
7 inst_1428:A2 0.0476
8 net_376:5 0.1466
9 net_376:6 0.2784
10 net_376:7 0.2008
11 inst_1331:A1 0.3776
12 net_376:8 0.3242
13 net_376:9 0.2336
14 net_376:10 0.3863
15 net_376:11 0.2365
16 inst_4052:A1 0.1037
17 net_376:12 0.2417
18 net_376:13 0.2444
19 net_376:14 0.4262
20 net_376:15 0.3737
21 net_376:16 0.3015
22 inst_2844:A 0.1830
23 net_376:17 0.1111
24 net_376:18 0.3711
25 net_376:19 0.0512
26 inst_1235:A1 0.1351
*RES
2 TAUGATE_59:Z net_376:1 0.3342
3 net_376:1 inst_1322:A1 0.2150
4 net_376:1 net_376:2 0.0521
5 net_376:2 net_376:3 0.0546
6 net_376:3 net_376:4 0.0043
7 net_376:4 inst_1428:A2 0.2737
8 net_376:2 net_376:5 0.2937
9 net_376:5 net_376:6 0.0093
10 net_376:6 net_376:7 0.2822
11 net_376:7 inst_1331:A1 0.4311
12 net_376:6 net_376:8 0.3572
13 net_376:8 net_376:9 0.2211
14 net_376:9 net_376:10 0.2185
15 net_376:10 net_376:11 0.2266
16 net_376:11 inst_4052:A1 0.2538
17 net_376:3 net_376:12 0.3035
18 net_376:12 net_376:13 0.4053
19 net_376:13 net_376:14 0.0863
20 net_376:14 net_376:15 0.2362
21 net_376:15 net_376:16 0.1365
22 net_376:16 inst_2844:A 0.0277
23 net_376:14 net_376:17 0.0984
24 net_376:17 net_376:18 0.0368
25 net_376:18 net_376:19 0.4376
26 net_376:19 inst_1235:A1 0.1423
*END

*D_NET TAUNET_43 2.0911
*CONN
*I inst_3470:ZN O
*I TAUGATE_43:A I
*CAP
1 inst_3470:ZN 0.1146
2 TAUNET_43:1 0.4610
3 TAUNET_43:2 0.4832
4 TAUNET_43:3 0.2776
5 TAUNET_43:4 0.3781
6 TAUGATE_43:A 0.3766
*RES
2 inst_3470:ZN TAUNET_43:1 0.0185
3 TAUNET_43:1 TAUNET_43:2 0.3877
4 TAUNET_43:2 TAUNET_43:3 0.1588
5 TAUNET_43:3 TAUNET_43:4 0.3738
6 TAUNET_43:4 TAUGATE_43:A 0.4556
*END

*D_NET TAUNET_56 1.0723
*CONN
*I inst_86:ZN O
*I TAUGATE_56:A I
*CAP
1 inst_86:ZN 0.0020
2 TAUNET_56:1 0.3010
3 TAUNET_56:2 0.2164
4 TAUNET_56:3 0.4372
5 TAUGATE_56:A 0.1158
*RES
2 inst_86:ZN TAUNET_56:1 0.1153
3 TAUNET_56:1 TAUNET_56:2 0.3810
4 TAUNET_56:2 TAUNET_56:3 0.1100
5 TAUNET_56:3 TAUGATE_56:A 0.1662
*END

*D_NET TAUNET_55 1.3952
*CONN
*I inst_3357:Q O
*I TAUGATE_55:A I
*CAP
1 inst_3357:Q 0.2541
2 TAUNET_55:1 0.4625
3 TAUNET_55:2 0.2343
4 TAUNET_55:3 0.0981
5 TAUGATE_55:A 0.3461
*RES
2 inst_3357:Q TAUNET_55:1 0.2382
3 TAUNET_55:1 TAUNET_55:2 0.4109
4 TAUNET_55:2 TAUNET_55:3 0.0945
5 TAUNET_55:3 TAUGATE_55:A 0.2326
*END

*D_NET net_1098 0.7650
*CONN
*I TAUGATE_10:Z O
*I inst_417:A I
*CAP
1 TAUGATE_10:Z 0.2674
2 net_1098:1 0.0414
3 net_1098:2 0.2455
4 net_1098:3 0.1970
5 inst_417:A 0.0138
*RES
2 TAUGATE_10:Z net_1098:1 0.4527
3 net_1098:1 net_1098:2 0.3131
4 net_1098:2 net_1098:3 0.4392
5 net_1098:3 inst_417:A 0.4048
*END

*D_NET TAUNET_11 1.7566
*CONN
*I inst_848:ZN O
*I TAUGATE_11:A I
*CAP
1 inst_848:ZN 0.3283
2 TAUNET_11:1 0.4199
3 TAUNET_11:2 0.3736
4 TAUNET_11:3 0.3306
5 TAUGATE_11:A 0.3042
*RES
2 inst_848:ZN TAUNET_11:1 0.1317
3 TAUNET_11:1 TAUNET_11:2 0.1481
4 TAUNET_11:2 TAUNET_11:3 0.2485
5 TAUNET_11:3 TAUGATE_11:A 0.2201
*END

*D_NET TAUNET_33 0.7087
*CONN
*I inst_1827:ZN O
*I TAUGATE_33:A I
*CAP
1 inst_1827:ZN 0.3013
2 TAUNET_33:1 0.0262
3 TAUGATE_33:A 0.3812
*RES
2 inst_1827:ZN TAUNET_33:1 0.0656
3 TAUNET_33:1 TAUGATE_33:A 0.1550
*END

*D_NET net_3361 1.3180
*CONN
*I TAUGATE_50:Z O
*I inst_3336:D I
*CAP
1 TAUGATE_50:Z 0.1418
2 net_3361:1 0.3805
3 net_3361:2 0.2523
4 net_3361:3 0.0497
5 inst_3336:D 0.4938
*RES
2 TAUGATE_50:Z net_3361:1 0.3913
3 net_3361:1 net_3361:2 0.2131
4 net_3361:2 net_3361:3 0.3201
5 net_3361:3 inst_3336:D 0.0320
*END

*D_NET TAUNET_22 2.1105
*CONN
*I inst_3618:ZN O
*I TAUGATE_22:A I
*CAP
1 inst_3618:ZN 0.3378
2 TAUNET_22:1 0.2454
3 TAUNET_22:2 0.4527
4 TAUNET_22:3 0.2663
5 TAUNET_22:4 0.3641
6 TAUNET_22:5 0.1740
7 TAUGATE_22:A 0.2701
*RES
2 inst_3618:ZN TAUNET_22:1 0.3351
3 TAUNET_22:1 TAUNET_22:2 0.4105
4 TAUNET_22:2 TAUNET_22:3 0.3004
5 TAUNET_22:3 TAUNET_22:4 0.3665
6 TAUNET_22:4 TAUNET_22:5 0.1341
7 TAUNET_22:5 TAUGATE_22:A 0.0859
*END

*D_NET TAUNET_41 0.5333
*CONN
*I inst_3363:Q O
*I TAUGATE_41:A I
*CAP
1 inst_3363:Q 0.3812
2 TAUNET_41:1 0.1227
3 TAUGATE_41:A 0.0294
*RES
2 inst_3363:Q TAUNET_41:1 0.0059
3 TAUNET_41:1 TAUGATE_41:A 0.3552
*END

*D_NET TAUNET_30 2.1906
*CONN
*I inst_1197:ZN O
*I TAUGATE_30:A I
*CAP
1 inst_1197:ZN 0.1840
2 TAUNET_30:1 0.3573
3 TAUNET_30:2 0.4559
4 TAUNET_30:3 0.3575
5 TAUNET_30:4 0.1715
6 TAUNET_30:5 0.3050
7 TAUGATE_30:A 0.3594
*RES
2 inst_1197:ZN TAUNET_30:1 0.4902
3 TAUNET_30:1 TAUNET_30:2 0.4716
4 TAUNET_30:2 TAUNET_30:3 0.2112
5 TAUNET_30:3 TAUNET_30:4 0.1762
6 TAUNET_30:4 TAUNET_30:5 0.1166
7 TAUNET_30:5 TAUGATE_30:A 0.1660
*END

*D_NET net_2536 1.7572
*CONN
*I TAUGATE_37:Z O
*I inst_384:A I
*CAP
1 TAUGATE_37:Z 0.2908
2 net_2536:1 0.3308
3 net_2536:2 0.4080
4 net_2536:3 0.4669
5 net_2536:4 0.1932
6 inst_384:A 0.0675
*RES
2 TAUGATE_37:Z net_2536:1 0.0053
3 net_2536:1 net_2536:2 0.1459
4 net_2536:2 net_2536:3 0.0437
5 net_2536:3 net_2536:4 0.4598
6 net_2536:4 inst_384:A 0.3838
*END

*D_NET TAUNET_58 2.5348
*CONN
*I inst_1496:ZN O
*I TAUGATE_58:A I
*CAP
1 inst_1496:ZN 0.3263
2 TAUNET_58:1 0.4683
3 TAUNET_58:2 0.1543
4 TAUNET_58:3 0.4873
5 TAUNET_58:4 0.1669
6 TAUNET_58:5 0.4800
7 TAUGATE_58:A 0.4518
*RES
2 inst_1496:ZN TAUNET_58:1 0.0570
3 TAUNET_58:1 TAUNET_58:2 0.4909
4 TAUNET_58:2 TAUNET_58:3 0.0572
5 TAUNET_58:3 TAUNET_58:4 0.5008
6 TAUNET_58:4 TAUNET_58:5 0.1013
7 TAUNET_58:5 TAUGATE_58:A 0.2457
*END

*D_NET net_779 2.1229
*CONN
*I TAUGATE_33:Z O
*I inst_846:A I
*CAP
1 TAUGATE_33:Z 0.2594
2 net_779:1 0.4074
3 net_779:2 0.4309
4 net_779:3 0.4474
5 net_779:4 0.2931
6 inst_846:A 0.2848
*RES
2 TAUGATE_33:Z net_779:1 0.2246
3 net_779:1 net_779:2 0.3320
4 net_779:2 net_779:3 0.3870
5 net_779:3 net_779:4 0.3663
6 net_779:4 inst_846:A 0.1512
*END

*D_NET net_1562 5.5643
*CONN
*I TAUGATE_16:Z O
*I inst_806:C1 I
*I inst_2721:A I
*I inst_1298:A1 I
*CAP
1 TAUGATE_16:Z 0.4493
2 net_1562:1 0.2866
3 net_1562:2 0.1873
4 net_1562:3 0.1599
5 net_1562:4 0.3589
6 net_1562:5 0.4697
7 inst_806:C1 0.4844
8 net_1562:6 0.1285
9 net_1562:7 0.0491
10 net_1562:8 0.3511
11 net_1562:9 0.2111
12 net_1562:10 0.3010
13 inst_2721:A 0.1515
14 net_1562:11 0.3648
15 net_1562:12 0.4404
16 net_1562:13 0.3187
17 net_1562:14 0.4272
18 net_1562:15 0.0224
19 inst_1298:A1 0.4026
*RES
2 TAUGATE_16:Z net_1562:1 0.0401
3 net_1562:1 net_1562:2 0.2861
4 net_1562:2 net_1562:3 0.1883
5 net_1562:3 net_1562:4 0.3075
6 net_1562:4 net_1562:5 0.0604
7 net_1562:5 inst_806:C1 0.3908
8 net_1562:4 net_1562:6 0.0492
9 net_1562:6 net_1562:7 0.2707
10 net_1562:7 net_1562:8 0.0711
11 net_1562:8 net_1562:9 0.2365
12 net_1562:9 net_1562:10 0.0021
13 net_1562:10 inst_2721:A 0.2080
14 net_1562:8 net_1562:11 0.2784
15 net_1562:11 net_1562:12 0.1803
16 net_1562:12 net_1562:13 0.0882
17 net_1562:13 net_1562:14 0.2924
18 net_1562:14 net_1562:15 0.4780
19 net_1562:15 inst_1298:A1 0.3510
*END

*D_NET TAUNET_52 1.0443
*CONN
*I inst_1741:ZN O
*I TAUGATE_52:A I
*CAP
1 inst_1741:ZN 0.2614
2 TAUNET_52:1 0.2582
3 TAUNET_52:2 0.4484
4 TAUGATE_52:A 0.0762
*RES
2 inst_1741:ZN TAUNET_52:1 0.1986
3 TAUNET_52:1 TAUNET_52:2 0.3922
4 TAUNET_52:2 TAUGATE_52:A 0.3950
*END

*D_NET net_3822 3.7734
*CONN
*I TAUGATE_36:Z O
*I inst_2069:A2 I
*I inst_2070:A2 I
*I inst_880:A3 I
*CAP
1 TAUGATE_36:Z 0.4255
2 net_3822:1 0.2972
3 net_3822:2 0.3936
4 net_3822:3 0.4880
5 net_3822:4 0.4169
6 net_3822:5 0.3167
7 inst_2070:A2 0.3376
8 net_3822:6 0.1251
9 net_3822:7 0.0048
10 net_3822:8 0.3126
11 net_3822:9 0.0195
12 inst_2069:A2 0.0541
13 net_3822:10 0.4904
14 inst_880:A3 0.0915
*RES
2 TAUGATE_36:Z net_3822:1 0.1073
3 net_3822:1 net_3822:2 0.3579
4 net_3822:2 net_3822:3 0.1300
5 net_3822:3 net_3822:4 0.3795
6 net_3822:4 net_3822:5 0.2362
7 net_3822:5 inst_2070:A2 0.1908
8 net_3822:2 net_3822:6 0.3700
9 net_3822:6 net_3822:7 0.3260
10 net_3822:7 net_3822:8 0.3466
11 net_3822:8 net_3822:9 0.4948
12 net_3822:9 inst_2069:A2 0.4038
13 net_3822:4 net_3822:10 0.4619
14 net_3822:10 inst_880:A3 0.1065
*END

*D_NET TAUNET_59 0.7741
*CONN
*I inst_938:ZN O
*I TAUGATE_59:A I
*CAP
1 inst_938:ZN 0.2576
2 TAUNET_59:1 0.2231
3 TAUGATE_59:A 0.2934
*RES
2 inst_938:ZN TAUNET_59:1 0.0661
3 TAUNET_59:1 TAUGATE_59:A 0.0281
*END

*D_NET net_3614 2.8177
*CONN
*I TAUGATE_28:Z O
*I inst_1081:A1 I
*I inst_1083:A1 I
*I inst_2827:A I
*CAP
1 TAUGATE_28:Z 0.2539
2 net_3614:1 0.1980
3 inst_1081:A1 0.3226
4 net_3614:2 0.4631
5 net_3614:3 0.0407
6 net_3614:4 0.4130
7 net_3614:5 0.3462
8 net_3614:6 0.0714
9 inst_1083:A1 0.2110
10 net_3614:7 0.4333
11 inst_2827:A 0.0645
*RES
2 TAUGATE_28:Z net_3614:1 0.1282
3 net_3614:1 inst_1081:A1 0.2766
4 net_3614:1 net_3614:2 0.2588
5 net_3614:2 net_3614:3 0.0339
6 net_3614:3 net_3614:4 0.0519
7 net_3614:4 net_3614:5 0.4874
8 net_3614:5 net_3614:6 0.0374
9 net_3614:6 inst_1083:A1 0.2489
10 net_3614:3 net_3614:7 0.3416
11 net_3614:7 inst_2827:A 0.4099
*END

*D_NET TAUNET_48 0.3691
*CONN
*I inst_2951:ZN O
*I TAUGATE_48:A I
*CAP
1 inst_2951:ZN 0.0325
2 TAUNET_48:1 0.1850
3 TAUGATE_48:A 0.1516
*RES
2 inst_2951:ZN TAUNET_48:1 0.2746
3 TAUNET_48:1 TAUGATE_48:A 0.4228
*END

*D_NET net_1640 2.5210
*CONN
*I TAUGATE_22:Z O
*I inst_1715:A2 I
*I inst_1023:A2 I
*CAP
1 TAUGATE_22:Z 0.3754
2 net_1640:1 0.0068
3 net_1640:2 0.2001
4 net_1640:3 0.4220
5 inst_1715:A2 0.4926
6 net_1640:4 0.4413
7 net_1640:5 0.1336
8 net_1640:6 0.4042
9 inst_1023:A2 0.0451
*RES
2 TAUGATE_22:Z net_1640:1 0.0580
3 net_1640:1 net_1640:2 0.3810
4 net_1640:2 net_1640:3 0.2195
5 net_1640:3 inst_1715:A2 0.2042
6 net_1640:2 net_1640:4 0.2391
7 net_1640:4 net_1640:5 0.0321
8 net_1640:5 net_1640:6 0.4146
9 net_1640:6 inst_1023:A2 0.0857
*END

*D_NET TAUNET_42 1.3928
*CONN
*I inst_3310:QN O
*I TAUGATE_42:A I
*CAP
1 inst_3310:QN 0.2245
2 TAUNET_42:1 0.0551
3 TAUNET_42:2 0.1877
4 TAUNET_42:3 0.0973
5 TAUNET_42:4 0.4235
6 TAUNET_42:5 0.1903
7 TAUGATE_42:A 0.2143
*RES
2 inst_3310:QN TAUNET_42:1 0.0701
3 TAUNET_42:1 TAUNET_42:2 0.2421
4 TAUNET_42:2 TAUNET_42:3 0.4634
5 TAUNET_42:3 TAUNET_42:4 0.2497
6 TAUNET_42:4 TAUNET_42:5 0.2766
7 TAUNET_42:5 TAUGATE_42:A 0.3086
*END

*D_NET net_2087 1.1823
*CONN
*I TAUGATE_26:Z O
*I inst_1254:A1 I
*CAP
1 TAUGATE_26:Z 0.4838
2 net_2087:1 0.3539
3 inst_1254:A1 0.3446
*RES
2 TAUGATE_26:Z net_2087:1 0.0192
3 net_2087:1 inst_1254:A1 0.1341
*END

*D_NET net_2972 18.1101
*CONN
*I TAUGATE_35:Z O
*I inst_488:B2 I
*I inst_539:B2 I
*I inst_1590:A1 I
*I inst_531:B2 I
*I inst_519:B2 I
*I inst_1589:A1 I
*I inst_1587:A1 I
*I inst_506:B2 I
*I inst_470:B2 I
*I inst_2087:A1 I
*I inst_1592:A1 I
*I inst_1588:A1 I
*I inst_477:B2 I
*I inst_487:B2 I
*I inst_2086:A1 I