*SPEF "IEEE 1481-1998"
*DESIGN "c432"
*DATE "Tue Nov 25 16:54:44 2014"
*VENDOR "TAU 2015 Contest"
*PROGRAM "Benchmark Parasitic Generator"
*VERSION "0.0"
*DESIGN_FLOW "NETLIST_TYPE_VERILOG"
*DIVIDER /
*DELIMITER :
*BUS_DELIMITER [ ]
*T_UNIT 1 PS
*C_UNIT 1 FF
*R_UNIT 1 KOHM
*L_UNIT 1 UH

*D_NET n43gat 1.0564
*CONN
*P n43gat I
*I inst_107:A I
*I inst_131:A1 I
*I inst_50:A1 I
*I inst_59:A2 I
*CAP
1 n43gat 0.0130
2 inst_107:A 0.0166
3 inst_131:A1 0.0166
4 inst_50:A1 0.0166
5 inst_59:A2 0.0166
6 n43gat:1 0.0379
7 n43gat:2 0.0199
8 n43gat:3 0.0507
9 n43gat:4 0.0152
10 n43gat:5 0.0108
11 n43gat:6 0.0108
12 n43gat:7 0.0144
13 n43gat:8 0.0452
14 n43gat:9 0.0582
15 n43gat:10 0.0582
16 n43gat:11 0.0627
17 n43gat:12 0.0627
18 n43gat:13 0.0363
19 n43gat:14 0.0363
20 n43gat:15 0.0206
21 n43gat:16 0.0167
22 n43gat:17 0.1919
23 n43gat:18 0.1904
24 n43gat:19 0.0379
*RES
2 n43gat n43gat:15 0.0010
3 n43gat:1 inst_107:A 0.0050
4 n43gat:1 n43gat:19 0.0030
5 n43gat:1 n43gat:2 0.0050
6 n43gat:2 n43gat:3 0.0014
7 n43gat:3 n43gat:8 0.0036
8 n43gat:3 n43gat:4 0.0050
9 n43gat:4 inst_131:A1 0.0050
10 n43gat:5 inst_50:A1 0.0050
11 n43gat:5 n43gat:6 0.0010
12 n43gat:7 n43gat:6 0.0050
13 n43gat:8 n43gat:7 0.0010
14 n43gat:8 n43gat:14 0.0050
15 n43gat:9 inst_59:A2 0.0050
16 n43gat:10 n43gat:9 0.0050
17 n43gat:11 n43gat:10 0.0050
18 n43gat:12 n43gat:11 0.0052
19 n43gat:13 n43gat:12 0.0050
20 n43gat:14 n43gat:13 0.0010
21 n43gat:16 n43gat:15 0.0050
22 n43gat:17 n43gat:16 0.0010
23 n43gat:17 n43gat:18 0.0176
24 n43gat:19 n43gat:18 0.0050
*END

*D_NET net_107 1.0823
*CONN
*I inst_57:ZN O
*I inst_124:A I
*I inst_97:A2 I
*CAP
1 inst_57:ZN 0.0166
2 inst_124:A 0.0215
3 inst_97:A2 0.0379
4 net_107:1 0.0337
5 net_107:2 0.0152
6 net_107:3 0.0366
7 net_107:4 0.0366
8 net_107:5 0.0152
9 net_107:6 0.0298
10 net_107:7 0.0548
11 net_107:8 0.0510
12 net_107:9 0.1516
13 net_107:10 0.1516
14 net_107:11 0.0824
15 net_107:12 0.0824
16 net_107:13 0.0867
17 net_107:14 0.0867
18 net_107:15 0.0460
19 net_107:16 0.0460
*RES
2 inst_97:A2 net_107:1 0.0031
3 net_107:1 net_107:2 0.0050
4 net_107:2 net_107:3 0.0050
5 net_107:3 net_107:4 0.0027
6 net_107:4 net_107:5 0.0050
7 net_107:5 net_107:6 0.0050
8 net_107:6 inst_124:A 0.0031
9 net_107:7 inst_57:ZN 0.0050
10 net_107:7 net_107:8 0.0060
11 net_107:9 net_107:8 0.0050
12 net_107:9 net_107:10 0.0129
13 net_107:11 net_107:10 0.0050
14 net_107:11 net_107:12 0.0023
15 net_107:13 net_107:12 0.0050
16 net_107:13 net_107:14 0.0102
17 net_107:15 net_107:14 0.0050
18 net_107:15 net_107:16 0.0035
19 net_107:16 inst_97:A2 0.0050
*END

*D_NET net_47 0.2308
*CONN
*I inst_7:ZN O
*I inst_32:A3 I
*I inst_29:A3 I
*CAP
1 inst_7:ZN 0.0072
2 inst_32:A3 0.0070
3 inst_29:A3 0.0166
4 net_47:1 0.0164
5 net_47:2 0.0669
6 net_47:3 0.0781
7 net_47:4 0.0263
8 net_47:5 0.0123
*RES
2 inst_7:ZN net_47:5 0.0010
3 net_47:1 inst_32:A3 0.0010
4 net_47:1 net_47:2 0.0050
5 net_47:2 net_47:3 0.0055
6 net_47:3 net_47:4 0.0013
7 net_47:4 inst_29:A3 0.0050
8 net_47:5 net_47:1 0.0010
*END

*D_NET n34gat 0.7527
*CONN
*P n34gat I
*I inst_119:A I
*I inst_81:A1 I
*CAP
1 n34gat 0.0130
2 inst_119:A 0.0166
3 inst_81:A1 0.0166
4 n34gat:1 0.0217
5 n34gat:2 0.0217
6 n34gat:3 0.2877
7 n34gat:4 0.0655
8 n34gat:5 0.0193
9 n34gat:6 0.0193
10 n34gat:7 0.0206
11 n34gat:8 0.0180
12 n34gat:9 0.2327
*RES
2 n34gat n34gat:7 0.0010
3 n34gat:1 inst_81:A1 0.0050
4 n34gat:1 n34gat:2 0.0010
5 n34gat:3 n34gat:2 0.0050
6 n34gat:3 n34gat:4 0.0047
7 n34gat:4 n34gat:5 0.0050
8 n34gat:6 inst_119:A 0.0050
9 n34gat:6 n34gat:5 0.0010
10 n34gat:8 n34gat:7 0.0050
11 n34gat:8 n34gat:9 0.0010
12 n34gat:9 n34gat:3 0.0204
*END

*D_NET n82gat 0.8843
*CONN
*P n82gat I
*I inst_116:A I
*I inst_55:A2 I
*CAP
1 n82gat 0.2440
2 inst_116:A 0.0072
3 inst_55:A2 0.0166
4 n82gat:1 0.0155
5 n82gat:2 0.0264
6 n82gat:3 0.0264
7 n82gat:4 0.0393
8 n82gat:5 0.0393
9 n82gat:6 0.0287
10 n82gat:7 0.0325
11 n82gat:8 0.2554
12 n82gat:9 0.0765
13 n82gat:10 0.0765
*RES
2 n82gat n82gat:8 0.0216
3 inst_116:A n82gat:1 0.0010
4 n82gat:2 n82gat:1 0.0050
5 n82gat:3 n82gat:2 0.0015
6 n82gat:4 n82gat:3 0.0050
7 n82gat:4 n82gat:5 0.0027
8 n82gat:6 n82gat:5 0.0050
9 n82gat:7 inst_55:A2 0.0050
10 n82gat:7 n82gat:6 0.0015
11 n82gat:9 n82gat:8 0.0050
12 n82gat:10 n82gat:7 0.0050
13 n82gat:10 n82gat:9 0.0054
*END

*D_NET n99gat 1.0832
*CONN
*P n99gat I
*I inst_102:A I
*I inst_84:A1 I
*CAP
1 n99gat 0.0143
2 inst_102:A 0.0072
3 inst_84:A1 0.0166
4 n99gat:1 0.0887
5 n99gat:2 0.0163
6 n99gat:3 0.1789
7 n99gat:4 0.1789
8 n99gat:5 0.0166
9 n99gat:6 0.0166
10 n99gat:7 0.0155
11 n99gat:8 0.0219
12 n99gat:9 0.0180
13 n99gat:10 0.2045
14 n99gat:11 0.2017
15 n99gat:12 0.0876
*RES
2 inst_102:A n99gat:7 0.0010
3 n99gat:1 inst_84:A1 0.0050
4 n99gat:1 n99gat:2 0.0010
5 n99gat:2 n99gat:3 0.0050
6 n99gat:4 n99gat:3 0.0102
7 n99gat:4 n99gat:5 0.0050
8 n99gat:6 n99gat:5 0.0010
9 n99gat:6 n99gat:7 0.0050
10 n99gat:8 n99gat 0.0010
11 n99gat:9 n99gat:8 0.0050
12 n99gat:9 n99gat:10 0.0010
13 n99gat:11 n99gat:10 0.0190
14 n99gat:12 n99gat:1 0.0065
15 n99gat:12 n99gat:11 0.0050
*END

*D_NET net_61 0.1762
*CONN
*I inst_76:ZN O
*I inst_27:A2 I
*CAP
1 inst_76:ZN 0.0166
2 inst_27:A2 0.0166
3 net_61:1 0.0715
4 net_61:2 0.0715
*RES
2 inst_27:A2 net_61:2 0.0050
3 net_61:1 inst_76:ZN 0.0050
4 net_61:2 net_61:1 0.0095
*END

*D_NET net_54 0.8395
*CONN
*I inst_128:ZN O
*I inst_42:A2 I
*I inst_11:A I
*CAP
1 inst_128:ZN 0.0166
2 inst_42:A2 0.0076
3 inst_11:A 0.0166
4 net_54:1 0.0545
5 net_54:2 0.0437
6 net_54:3 0.1099
7 net_54:4 0.1099
8 net_54:5 0.0631
9 net_54:6 0.0593
10 net_54:7 0.0159
11 net_54:8 0.0195
12 net_54:9 0.0195
13 net_54:10 0.0217
14 net_54:11 0.0217
15 net_54:12 0.1066
16 net_54:13 0.1066
17 net_54:14 0.0123
18 net_54:15 0.0123
19 net_54:16 0.0223
*RES
2 net_54:1 inst_11:A 0.0050
3 net_54:1 net_54:2 0.0045
4 net_54:2 net_54:3 0.0050
5 net_54:3 net_54:4 0.0075
6 net_54:4 net_54:5 0.0050
7 net_54:5 net_54:6 0.0035
8 net_54:6 net_54:7 0.0050
9 net_54:7 inst_42:A2 0.0010
10 net_54:8 inst_128:ZN 0.0050
11 net_54:8 net_54:9 0.0015
12 net_54:10 net_54:9 0.0050
13 net_54:11 net_54:10 0.0011
14 net_54:12 net_54:11 0.0050
15 net_54:12 net_54:13 0.0027
16 net_54:14 net_54:13 0.0050
17 net_54:15 net_54:14 0.0010
18 net_54:16 net_54:1 0.0015
19 net_54:16 net_54:15 0.0050
*END

*D_NET n66gat 0.6223
*CONN
*P n66gat I
*I inst_109:A I
*I inst_91:A1 I
*CAP
1 n66gat 0.1202
2 inst_109:A 0.0166
3 inst_91:A1 0.0166
4 n66gat:1 0.1306
5 n66gat:2 0.0161
6 n66gat:3 0.0306
7 n66gat:4 0.0306
8 n66gat:5 0.0152
9 n66gat:6 0.1238
10 n66gat:7 0.1220
*RES
2 n66gat n66gat:6 0.0106
3 n66gat:1 inst_109:A 0.0050
4 n66gat:1 n66gat:2 0.0010
5 n66gat:2 n66gat:3 0.0050
6 n66gat:4 n66gat:3 0.0014
7 n66gat:4 n66gat:5 0.0050
8 n66gat:5 inst_91:A1 0.0050
9 n66gat:7 n66gat:1 0.0105
10 n66gat:7 n66gat:6 0.0010
*END

*D_NET net_105 0.7253
*CONN
*I inst_62:ZN O
*I inst_95:A2 I
*CAP
1 inst_62:ZN 0.0076
2 inst_95:A2 0.0159
3 net_105:1 0.0159
4 net_105:2 0.0596
5 net_105:3 0.0596
6 net_105:4 0.2263
7 net_105:5 0.2263
8 net_105:6 0.0450
9 net_105:7 0.0450
10 net_105:8 0.0242
*RES
2 inst_62:ZN net_105:1 0.0010
3 net_105:2 net_105:1 0.0050
4 net_105:2 net_105:3 0.0045
5 net_105:4 net_105:3 0.0050
6 net_105:4 net_105:5 0.0224
7 net_105:6 net_105:5 0.0050
8 net_105:7 net_105:6 0.0050
9 net_105:8 inst_95:A2 0.0021
10 net_105:8 net_105:7 0.0050
*END

*D_NET net_62 0.4477
*CONN
*I inst_132:ZN O
*I inst_27:A3 I
*I inst_12:A I
*CAP
1 inst_132:ZN 0.0077
2 inst_27:A3 0.0166
3 inst_12:A 0.0166
4 net_62:1 0.0173
5 net_62:2 0.0173
6 net_62:3 0.0896
7 net_62:4 0.0487
8 net_62:5 0.0182
9 net_62:6 0.0182
10 net_62:7 0.0160
11 net_62:8 0.0665
12 net_62:9 0.0665
13 net_62:10 0.0485
*RES
2 inst_132:ZN net_62:7 0.0010
3 net_62:1 inst_12:A 0.0050
4 net_62:2 net_62:1 0.0010
5 net_62:3 net_62:2 0.0050
6 net_62:3 net_62:4 0.0054
7 net_62:4 net_62:5 0.0050
8 net_62:6 inst_27:A3 0.0050
9 net_62:6 net_62:5 0.0010
10 net_62:8 net_62:7 0.0050
11 net_62:8 net_62:9 0.0040
12 net_62:10 net_62:3 0.0034
13 net_62:10 net_62:9 0.0050
*END

*D_NET net_6 0.2957
*CONN
*I inst_106:ZN O
*I inst_131:A2 I
*CAP
1 inst_106:ZN 0.0198
2 inst_131:A2 0.0166
3 net_6:1 0.0281
4 net_6:2 0.0638
5 net_6:3 0.0660
6 net_6:4 0.0519
7 net_6:5 0.0496
*RES
2 inst_106:ZN net_6:1 0.0021
3 inst_131:A2 net_6:5 0.0050
4 net_6:2 net_6:1 0.0050
5 net_6:3 net_6:2 0.0045
6 net_6:4 net_6:3 0.0010
7 net_6:5 net_6:4 0.0040
*END

*D_NET net_119 0.1936
*CONN
*I inst_33:ZN O
*I inst_18:A2 I
*CAP
1 inst_33:ZN 0.0287
2 inst_18:A2 0.0166
3 net_119:1 0.0370
4 net_119:2 0.0152
5 net_119:3 0.0405
6 net_119:4 0.0405
7 net_119:5 0.0152
*RES
2 inst_33:ZN net_119:1 0.0041
3 inst_18:A2 net_119:5 0.0050
4 net_119:2 net_119:1 0.0050
5 net_119:3 net_119:2 0.0050
6 net_119:3 net_119:4 0.0020
7 net_119:5 net_119:4 0.0050
*END

*D_NET net_98 0.2644
*CONN
*I inst_89:ZN O
*I inst_55:A1 I
*CAP
1 inst_89:ZN 0.0166
2 inst_55:A1 0.0166
3 net_98:1 0.0178
4 net_98:2 0.0178
5 net_98:3 0.0564
6 net_98:4 0.0564
7 net_98:5 0.0414
8 net_98:6 0.0414
*RES
2 inst_55:A1 net_98:6 0.0050
3 net_98:1 inst_89:ZN 0.0050
4 net_98:2 net_98:1 0.0010
5 net_98:3 net_98:2 0.0050
6 net_98:4 net_98:3 0.0041
7 net_98:5 net_98:4 0.0050
8 net_98:6 net_98:5 0.0020
*END

*D_NET net_23 0.5024
*CONN
*I inst_39:ZN O
*I inst_26:A2 I
*I inst_3:A I
*CAP
1 inst_39:ZN 0.0166
2 inst_26:A2 0.0166
3 inst_3:A 0.0166
4 net_23:1 0.0230
5 net_23:2 0.0230
6 net_23:3 0.0721
7 net_23:4 0.1723
8 net_23:5 0.0152
9 net_23:6 0.0195
10 net_23:7 0.0195
11 net_23:8 0.1079
*RES
2 net_23:1 inst_26:A2 0.0050
3 net_23:2 net_23:1 0.0015
4 net_23:3 net_23:2 0.0050
5 net_23:4 net_23:3 0.0068
6 net_23:4 net_23:5 0.0050
7 net_23:5 inst_3:A 0.0050
8 net_23:6 inst_39:ZN 0.0050
9 net_23:6 net_23:7 0.0010
10 net_23:8 net_23:4 0.0081
11 net_23:8 net_23:7 0.0050
*END

*D_NET net_117 0.1318
*CONN
*I inst_45:ZN O
*I inst_23:A1 I
*CAP
1 inst_45:ZN 0.0163
2 inst_23:A1 0.0166
3 net_117:1 0.0246
4 net_117:2 0.0371
5 net_117:3 0.0371
*RES
2 inst_23:A1 net_117:3 0.0050
3 net_117:1 inst_45:ZN 0.0021
4 net_117:2 net_117:1 0.0050
5 net_117:2 net_117:3 0.0045
*END

*D_NET net_12 0.0957
*CONN
*I inst_112:ZN O
*I inst_128:A2 I
*CAP
1 inst_112:ZN 0.0072
2 inst_128:A2 0.0166
3 net_12:1 0.0163
4 net_12:2 0.0147
5 net_12:3 0.0213
6 net_12:4 0.0196
*RES
2 inst_112:ZN net_12:4 0.0010
3 net_12:1 inst_128:A2 0.0050
4 net_12:2 net_12:1 0.0010
5 net_12:3 net_12:2 0.0010
6 net_12:4 net_12:3 0.0050
*END

*D_NET n102gat 1.2882
*CONN
*P n102gat I
*I inst_38:A2 I
*I inst_71:A1 I
*CAP
1 n102gat 0.0010
2 inst_38:A2 0.0166
3 inst_71:A1 0.0166
4 n102gat:1 0.2283
5 n102gat:2 0.0389
6 n102gat:3 0.0342
7 n102gat:4 0.0319
8 n102gat:5 0.0109
9 n102gat:6 0.0175
10 n102gat:7 0.0137
11 n102gat:8 0.0116
12 n102gat:9 0.3328
13 n102gat:10 0.3350
14 n102gat:11 0.1992
*RES
2 n102gat:1 inst_71:A1 0.0050
3 n102gat:1 n102gat:11 0.0185
4 n102gat:2 n102gat:1 0.0030
5 n102gat:3 n102gat:2 0.0010
6 n102gat:4 inst_38:A2 0.0050
7 n102gat:4 n102gat:3 0.0020
8 n102gat:5 n102gat 0.0010
9 n102gat:5 n102gat:6 0.0010
10 n102gat:7 n102gat:6 0.0050
11 n102gat:7 n102gat:8 0.0010
12 n102gat:9 n102gat:8 0.0010
13 n102gat:9 n102gat:10 0.0231
14 n102gat:11 n102gat:10 0.0050
*END

*D_NET net_74 0.1962
*CONN
*I inst_85:ZN O
*I inst_58:A4 I
*CAP
1 inst_85:ZN 0.0166
2 inst_58:A4 0.0076
3 net_74:1 0.0212
4 net_74:2 0.0212
5 net_74:3 0.0386
6 net_74:4 0.0386
7 net_74:5 0.0183
8 net_74:6 0.0183
9 net_74:7 0.0159
*RES
2 net_74:1 inst_85:ZN 0.0050
3 net_74:2 net_74:1 0.0015
4 net_74:3 net_74:2 0.0050
5 net_74:3 net_74:4 0.0027
6 net_74:5 net_74:4 0.0050
7 net_74:6 net_74:5 0.0010
8 net_74:7 inst_58:A4 0.0010
9 net_74:7 net_74:6 0.0050
*END

*D_NET net_53 0.1996
*CONN
*I inst_122:ZN O
*I inst_13:A I
*CAP
1 inst_122:ZN 0.0099
2 inst_13:A 0.0166
3 net_53:1 0.0255
4 net_53:2 0.0255
5 net_53:3 0.0301
6 net_53:4 0.0301
7 net_53:5 0.0219
8 net_53:6 0.0219
9 net_53:7 0.0182
*RES
2 inst_122:ZN net_53:7 0.0010
3 net_53:1 inst_13:A 0.0050
4 net_53:2 net_53:1 0.0015
5 net_53:3 net_53:2 0.0050
6 net_53:4 net_53:3 0.0020
7 net_53:5 net_53:4 0.0050
8 net_53:6 net_53:5 0.0010
9 net_53:7 net_53:6 0.0050
*END

*D_NET net_93 0.2335
*CONN
*I inst_64:ZN O
*I inst_31:A2 I
*CAP
1 inst_64:ZN 0.0166
2 inst_31:A2 0.0166
3 net_93:1 0.0152
4 net_93:2 0.0849
5 net_93:3 0.0849
6 net_93:4 0.0152
*RES
2 inst_31:A2 net_93:4 0.0050
3 net_93:1 inst_64:ZN 0.0050
4 net_93:2 net_93:1 0.0050
5 net_93:2 net_93:3 0.0068
6 net_93:4 net_93:3 0.0050
*END

*D_NET n105gat 2.6128
*CONN
*P n105gat I
*I inst_113:A I
*I inst_87:A1 I
*CAP
1 n105gat 0.0123
2 inst_113:A 0.0166
3 inst_87:A1 0.0166
4 n105gat:1 0.0162
5 n105gat:2 0.0162
6 n105gat:3 0.1048
7 n105gat:4 0.1048
8 n105gat:5 0.0173
9 n105gat:6 0.0529
10 n105gat:7 0.0237
11 n105gat:8 0.5280
12 n105gat:9 0.5280
13 n105gat:10 0.5235
14 n105gat:11 0.5235
15 n105gat:12 0.0408
16 n105gat:13 0.0408
17 n105gat:14 0.0470
*RES
2 n105gat:1 inst_87:A1 0.0050
3 n105gat:2 n105gat:1 0.0010
4 n105gat:3 n105gat:2 0.0050
5 n105gat:4 n105gat:3 0.0122
6 n105gat:5 n105gat:4 0.0050
7 n105gat:5 n105gat:6 0.0010
8 n105gat:6 inst_113:A 0.0050
9 n105gat:6 n105gat:14 0.0050
10 n105gat:7 n105gat 0.0010
11 n105gat:8 n105gat:7 0.0050
12 n105gat:8 n105gat:9 0.0377
13 n105gat:10 n105gat:9 0.0050
14 n105gat:11 n105gat:10 0.0168
15 n105gat:12 n105gat:11 0.0050
16 n105gat:12 n105gat:13 0.0026
17 n105gat:14 n105gat:13 0.0050
*END

*D_NET n30gat 1.2942
*CONN
*P n30gat I
*I inst_66:A1 I
*I inst_132:A1 I
*I inst_52:A1 I
*I inst_60:A2 I
*CAP
1 n30gat 0.0130
2 inst_66:A1 0.0166
3 inst_132:A1 0.0166
4 inst_52:A1 0.0166
5 inst_60:A2 0.0166
6 n30gat:1 0.0204
7 n30gat:2 0.0204
8 n30gat:3 0.0140
9 n30gat:4 0.0309
10 n30gat:5 0.0663
11 n30gat:6 0.0663
12 n30gat:7 0.0162
13 n30gat:8 0.0341
14 n30gat:9 0.0331
15 n30gat:10 0.0245
16 n30gat:11 0.0287
17 n30gat:12 0.0465
18 n30gat:13 0.0465
19 n30gat:14 0.0206
20 n30gat:15 0.0134
21 n30gat:16 0.0134
22 n30gat:17 0.0738
23 n30gat:18 0.0738
24 n30gat:19 0.2715
25 n30gat:20 0.2715
26 n30gat:21 0.0287
*RES
2 n30gat n30gat:14 0.0010
3 n30gat:1 inst_66:A1 0.0050
4 n30gat:1 n30gat:2 0.0010
5 n30gat:3 n30gat:2 0.0050
6 n30gat:4 n30gat:3 0.0010
7 n30gat:4 n30gat:5 0.0050
8 n30gat:5 n30gat:6 0.0090
9 n30gat:6 inst_52:A1 0.0050
10 n30gat:7 inst_132:A1 0.0050
11 n30gat:8 n30gat:7 0.0010
12 n30gat:9 n30gat:8 0.0015
13 n30gat:9 n30gat:10 0.0050
14 n30gat:10 n30gat:4 0.0027
15 n30gat:11 inst_60:A2 0.0050
16 n30gat:11 n30gat:12 0.0050
17 n30gat:12 n30gat:13 0.0034
18 n30gat:13 n30gat:8 0.0050
19 n30gat:15 n30gat:14 0.0050
20 n30gat:15 n30gat:16 0.0010
21 n30gat:17 n30gat:16 0.0050
22 n30gat:17 n30gat:18 0.0026
23 n30gat:19 n30gat:18 0.0050
24 n30gat:19 n30gat:20 0.0224
25 n30gat:21 n30gat:11 0.0015
26 n30gat:21 n30gat:20 0.0050
*END

*D_NET n40gat 0.9189
*CONN
*P n40gat I
*I inst_104:A I
*I inst_93:A1 I
*CAP
1 n40gat 0.0130
2 inst_104:A 0.0166
3 inst_93:A1 0.0166
4 n40gat:1 0.0187
5 n40gat:2 0.0299
6 n40gat:3 0.0400
7 n40gat:4 0.0400
8 n40gat:5 0.0169
9 n40gat:6 0.0169
10 n40gat:7 0.0206
11 n40gat:8 0.0175
12 n40gat:9 0.2540
13 n40gat:10 0.2517
14 n40gat:11 0.0632
15 n40gat:12 0.0632
16 n40gat:13 0.0087
17 n40gat:14 0.0087
18 n40gat:15 0.0227
*RES
2 n40gat n40gat:7 0.0010
3 n40gat:1 inst_104:A 0.0050
4 n40gat:1 n40gat:2 0.0010
5 n40gat:2 n40gat:15 0.0010
6 n40gat:2 n40gat:3 0.0050
7 n40gat:3 n40gat:4 0.0020
8 n40gat:4 n40gat:5 0.0050
9 n40gat:6 inst_93:A1 0.0050
10 n40gat:6 n40gat:5 0.0010
11 n40gat:8 n40gat:7 0.0050
12 n40gat:9 n40gat:8 0.0010
13 n40gat:9 n40gat:10 0.0216
14 n40gat:11 n40gat:10 0.0050
15 n40gat:12 n40gat:11 0.0027
16 n40gat:13 n40gat:12 0.0050
17 n40gat:13 n40gat:14 0.0010
18 n40gat:15 n40gat:14 0.0050
*END

*D_NET n37gat 0.8669
*CONN
*P n37gat I
*I inst_41:A2 I
*I inst_68:A1 I
*CAP
1 n37gat 0.0130
2 inst_41:A2 0.0166
3 inst_68:A1 0.0166
4 n37gat:1 0.0272
5 n37gat:2 0.0272
6 n37gat:3 0.0678
7 n37gat:4 0.0678
8 n37gat:5 0.0221
9 n37gat:6 0.0355
10 n37gat:7 0.0206
11 n37gat:8 0.0188
12 n37gat:9 0.2149
13 n37gat:10 0.2113
14 n37gat:11 0.0409
15 n37gat:12 0.0394
16 n37gat:13 0.0271
*RES
2 n37gat n37gat:7 0.0010
3 n37gat:1 inst_68:A1 0.0050
4 n37gat:2 n37gat:1 0.0013
5 n37gat:3 n37gat:2 0.0050
6 n37gat:4 n37gat:3 0.0068
7 n37gat:5 n37gat:4 0.0050
8 n37gat:6 inst_41:A2 0.0050
9 n37gat:6 n37gat:5 0.0010
10 n37gat:8 n37gat:7 0.0050
11 n37gat:8 n37gat:9 0.0010
12 n37gat:9 n37gat:10 0.0190
13 n37gat:11 n37gat:10 0.0050
14 n37gat:11 n37gat:12 0.0045
15 n37gat:12 n37gat:13 0.0010
16 n37gat:13 n37gat:6 0.0015
*END

*D_NET n112gat 1.2329
*CONN
*P n112gat I
*I inst_105:A I
*I inst_83:A1 I
*CAP
1 n112gat 0.0218
2 inst_105:A 0.0146
3 inst_83:A1 0.0166
4 n112gat:1 0.0229
5 n112gat:2 0.2357
6 n112gat:3 0.0269
7 n112gat:4 0.0895
8 n112gat:5 0.0895
9 n112gat:6 0.0991
10 n112gat:7 0.0991
11 n112gat:8 0.0332
12 n112gat:9 0.1319
13 n112gat:10 0.1319
14 n112gat:11 0.2202
*RES
2 n112gat:1 inst_105:A 0.0021
3 n112gat:2 n112gat:1 0.0050
4 n112gat:2 n112gat:11 0.0175
5 n112gat:3 n112gat:2 0.0020
6 n112gat:3 n112gat:4 0.0050
7 n112gat:5 n112gat:4 0.0095
8 n112gat:5 n112gat:6 0.0050
9 n112gat:7 inst_83:A1 0.0050
10 n112gat:7 n112gat:6 0.0075
11 n112gat:8 n112gat 0.0020
12 n112gat:9 n112gat:8 0.0050
13 n112gat:9 n112gat:10 0.0110
14 n112gat:11 n112gat:10 0.0050
*END

*D_NET n432gat 1.0829
*CONN
*I inst_18:ZN O
*P n432gat O
*CAP
1 n432gat 0.0010
2 inst_18:ZN 0.0166
3 n432gat:1 0.1994
4 n432gat:2 0.1994
5 n432gat:3 0.2804
6 n432gat:4 0.2804
7 n432gat:5 0.0152
8 n432gat:6 0.0392
9 n432gat:7 0.0392
10 n432gat:8 0.0121
*RES
2 n432gat n432gat:8 0.0010
3 n432gat:1 inst_18:ZN 0.0050
4 n432gat:1 n432gat:2 0.0195
5 n432gat:3 n432gat:2 0.0050
6 n432gat:3 n432gat:4 0.0170
7 n432gat:5 n432gat:4 0.0050
8 n432gat:6 n432gat:5 0.0050
9 n432gat:6 n432gat:7 0.0046
10 n432gat:8 n432gat:7 0.0050
*END

*D_NET n56gat 1.7245
*CONN
*P n56gat I
*I inst_108:A I
*I inst_128:A1 I
*I inst_51:A1 I
*I inst_57:A2 I
*CAP
1 n56gat 0.0012
2 inst_108:A 0.0166
3 inst_128:A1 0.0166
4 inst_51:A1 0.0166
5 inst_57:A2 0.0166
6 n56gat:1 0.0176
7 n56gat:2 0.0176
8 n56gat:3 0.0865
9 n56gat:4 0.1032
10 n56gat:5 0.0162
11 n56gat:6 0.0162
12 n56gat:7 0.0152
13 n56gat:8 0.0208
14 n56gat:9 0.1755
15 n56gat:10 0.1302
16 n56gat:11 0.1302
17 n56gat:12 0.0400
18 n56gat:13 0.0400
19 n56gat:14 0.0243
20 n56gat:15 0.0126
21 n56gat:16 0.0433
22 n56gat:17 0.0433
23 n56gat:18 0.0404
24 n56gat:19 0.0404
25 n56gat:20 0.0099
26 n56gat:21 0.0099
27 n56gat:22 0.2306
28 n56gat:23 0.2306
29 n56gat:24 0.1623
*RES
2 n56gat n56gat:15 0.0010
3 n56gat:1 inst_108:A 0.0050
4 n56gat:2 n56gat:1 0.0010
5 n56gat:3 n56gat:2 0.0050
6 n56gat:3 n56gat:4 0.0068
7 n56gat:4 n56gat:14 0.0014
8 n56gat:4 n56gat:5 0.0050
9 n56gat:5 n56gat:6 0.0010
10 n56gat:6 inst_57:A2 0.0050
11 n56gat:7 inst_128:A1 0.0050
12 n56gat:8 n56gat:7 0.0050
13 n56gat:9 n56gat:8 0.0014
14 n56gat:9 n56gat:10 0.0050
15 n56gat:10 n56gat:11 0.0053
16 n56gat:11 n56gat:3 0.0050
17 n56gat:12 inst_51:A1 0.0050
18 n56gat:12 n56gat:13 0.0020
19 n56gat:14 n56gat:13 0.0050
20 n56gat:16 n56gat:15 0.0050
21 n56gat:16 n56gat:17 0.0052
22 n56gat:18 n56gat:17 0.0050
23 n56gat:18 n56gat:19 0.0030
24 n56gat:20 n56gat:19 0.0050
25 n56gat:20 n56gat:21 0.0010
26 n56gat:22 n56gat:21 0.0050
27 n56gat:22 n56gat:23 0.0076
28 n56gat:24 n56gat:9 0.0140
29 n56gat:24 n56gat:23 0.0050
*END

*D_NET net_14 0.1734
*CONN
*I inst_114:ZN O
*I inst_127:A2 I
*CAP
1 inst_114:ZN 0.0077
2 inst_127:A2 0.0166
3 net_14:1 0.0160
4 net_14:2 0.0178
5 net_14:3 0.0178
6 net_14:4 0.0412
7 net_14:5 0.0412
8 net_14:6 0.0152
*RES
2 inst_127:A2 net_14:6 0.0050
3 net_14:1 inst_114:ZN 0.0010
4 net_14:2 net_14:1 0.0050
5 net_14:2 net_14:3 0.0010
6 net_14:4 net_14:3 0.0050
7 net_14:5 net_14:4 0.0047
8 net_14:6 net_14:5 0.0050
*END

*D_NET net_113 1.8444
*CONN
*I inst_60:ZN O
*I inst_125:A I
*I inst_96:A1 I
*I inst_98:A2 I
*CAP
1 inst_60:ZN 0.0077
2 inst_125:A 0.0166
3 inst_96:A1 0.0166
4 inst_98:A2 0.0216
5 net_113:1 0.0445
6 net_113:2 0.0407
7 net_113:3 0.1207
8 net_113:4 0.1207
9 net_113:5 0.0163
10 net_113:6 0.0512
11 net_113:7 0.0299
12 net_113:8 0.0152
13 net_113:9 0.0585
14 net_113:10 0.0582
15 net_113:11 0.0187
16 net_113:12 0.0160
17 net_113:13 0.0206
18 net_113:14 0.0206
19 net_113:15 0.1895
20 net_113:16 0.1895
21 net_113:17 0.0261
22 net_113:18 0.3019
23 net_113:19 0.2935
24 net_113:20 0.0518
25 net_113:21 0.0518
26 net_113:22 0.0462
*RES
2 inst_60:ZN net_113:12 0.0010
3 net_113:1 inst_96:A1 0.0050
4 net_113:1 net_113:11 0.0050
5 net_113:2 net_113:1 0.0020
6 net_113:3 net_113:2 0.0050
7 net_113:4 net_113:3 0.0068
8 net_113:5 net_113:4 0.0050
9 net_113:6 inst_125:A 0.0050
10 net_113:6 net_113:5 0.0010
11 net_113:7 inst_98:A2 0.0031
12 net_113:8 net_113:7 0.0050
13 net_113:9 net_113:8 0.0050
14 net_113:10 net_113:9 0.0041
15 net_113:11 net_113:10 0.0010
16 net_113:13 net_113:12 0.0050
17 net_113:13 net_113:14 0.0010
18 net_113:15 net_113:14 0.0050
19 net_113:15 net_113:16 0.0105
20 net_113:17 net_113:16 0.0050
21 net_113:17 net_113:18 0.0010
22 net_113:18 net_113:19 0.0090
23 net_113:20 net_113:19 0.0050
24 net_113:20 net_113:21 0.0054
25 net_113:22 net_113:6 0.0025
26 net_113:22 net_113:21 0.0050
*END

*D_NET net_26 0.6115
*CONN
*I inst_24:ZN O
*I inst_46:A3 I
*I inst_7:A I
*CAP
1 inst_24:ZN 0.0166
2 inst_46:A3 0.0166
3 inst_7:A 0.0332
4 net_26:1 0.0165
5 net_26:2 0.0165
6 net_26:3 0.0651
7 net_26:4 0.0689
8 net_26:5 0.0280
9 net_26:6 0.0280
10 net_26:7 0.0191
11 net_26:8 0.0191
12 net_26:9 0.1062
13 net_26:10 0.1062
14 net_26:11 0.0357
15 net_26:12 0.0357
*RES
2 inst_46:A3 net_26:12 0.0050
3 inst_7:A net_26:6 0.0050
4 net_26:1 inst_24:ZN 0.0050
5 net_26:2 net_26:1 0.0010
6 net_26:3 net_26:2 0.0050
7 net_26:4 net_26:3 0.0068
8 net_26:5 net_26:4 0.0050
9 net_26:6 net_26:5 0.0020
10 net_26:7 inst_7:A 0.0050
11 net_26:8 net_26:7 0.0015
12 net_26:9 net_26:8 0.0050
13 net_26:10 net_26:9 0.0122
14 net_26:11 net_26:10 0.0050
15 net_26:11 net_26:12 0.0018
*END

*D_NET net_76 0.1120
*CONN
*I inst_10:ZN O
*I inst_50:A4 I
*CAP
1 inst_10:ZN 0.0166
2 inst_50:A4 0.0166
3 net_76:1 0.0152
4 net_76:2 0.0242
5 net_76:3 0.0242
6 net_76:4 0.0152
*RES
2 inst_10:ZN net_76:4 0.0050
3 net_76:1 inst_50:A4 0.0050
4 net_76:2 net_76:1 0.0050
5 net_76:2 net_76:3 0.0014
6 net_76:4 net_76:3 0.0050
*END

*D_NET net_101 0.1183
*CONN
*I inst_92:ZN O
*I inst_59:A1 I
*CAP
1 inst_92:ZN 0.0166
2 inst_59:A1 0.0166
3 net_101:1 0.0171
4 net_101:2 0.0194
5 net_101:3 0.0254
6 net_101:4 0.0231
*RES
2 inst_59:A1 net_101:4 0.0050
3 net_101:1 inst_92:ZN 0.0050
4 net_101:2 net_101:1 0.0010
5 net_101:2 net_101:3 0.0010
6 net_101:4 net_101:3 0.0015
*END

*D_NET net_32 0.2898
*CONN
*I inst_68:ZN O
*I inst_59:A3 I
*CAP
1 inst_68:ZN 0.0102
2 inst_59:A3 0.0166
3 net_32:1 0.0185
4 net_32:2 0.0206
5 net_32:3 0.0206
6 net_32:4 0.0275
7 net_32:5 0.0275
8 net_32:6 0.0722
9 net_32:7 0.0760
*RES
2 inst_59:A3 net_32:7 0.0050
3 net_32:1 inst_68:ZN 0.0010
4 net_32:2 net_32:1 0.0050
5 net_32:2 net_32:3 0.0010
6 net_32:4 net_32:3 0.0050
7 net_32:4 net_32:5 0.0020
8 net_32:6 net_32:5 0.0050
9 net_32:6 net_32:7 0.0085
*END

*D_NET net_111 1.1690
*CONN
*I inst_54:ZN O
*I inst_95:A1 I
*I inst_33:A2 I
*CAP
1 inst_54:ZN 0.0166
2 inst_95:A1 0.0166
3 inst_33:A2 0.0179
4 net_111:1 0.0262
5 net_111:2 0.0593
6 net_111:3 0.0259
7 net_111:4 0.0220
8 net_111:5 0.0220
9 net_111:6 0.0152
10 net_111:7 0.1066
11 net_111:8 0.1028
12 net_111:9 0.0206
13 net_111:10 0.0206
14 net_111:11 0.3060
15 net_111:12 0.3060
16 net_111:13 0.0199
17 net_111:14 0.0199
18 net_111:15 0.0448
*RES
2 net_111:1 inst_33:A2 0.0021
3 net_111:2 net_111:1 0.0050
4 net_111:2 net_111:3 0.0020
5 net_111:3 net_111:4 0.0050
6 net_111:5 net_111:4 0.0014
7 net_111:5 net_111:6 0.0050
8 net_111:6 inst_95:A1 0.0050
9 net_111:7 inst_54:ZN 0.0050
10 net_111:7 net_111:8 0.0090
11 net_111:9 net_111:8 0.0050
12 net_111:10 net_111:9 0.0010
13 net_111:11 net_111:10 0.0050
14 net_111:11 net_111:12 0.0071
15 net_111:13 net_111:12 0.0050
16 net_111:13 net_111:14 0.0010
17 net_111:15 net_111:2 0.0020
18 net_111:15 net_111:14 0.0050
*END

*D_NET net_90 0.2359
*CONN
*I inst_52:ZN O
*I inst_64:A1 I
*CAP
1 inst_52:ZN 0.0166
2 inst_64:A1 0.0166
3 net_90:1 0.0294
4 net_90:2 0.0294
5 net_90:3 0.0643
6 net_90:4 0.0643
7 net_90:5 0.0152
*RES
2 inst_64:A1 net_90:5 0.0050
3 net_90:1 inst_52:ZN 0.0050
4 net_90:1 net_90:2 0.0025
5 net_90:3 net_90:2 0.0050
6 net_90:3 net_90:4 0.0034
7 net_90:5 net_90:4 0.0050
*END

*D_NET net_40 0.2818
*CONN
*I inst_0:ZN O
*I inst_127:A3 I
*I inst_49:A3 I
*CAP
1 inst_0:ZN 0.0166
2 inst_127:A3 0.0166
3 inst_49:A3 0.0166
4 net_40:1 0.0129
5 net_40:2 0.0390
6 net_40:3 0.0557
7 net_40:4 0.0557
8 net_40:5 0.0152
9 net_40:6 0.0175
10 net_40:7 0.0360
*RES
2 net_40:1 inst_127:A3 0.0050
3 net_40:1 net_40:2 0.0010
4 net_40:2 net_40:7 0.0035
5 net_40:2 net_40:3 0.0050
6 net_40:3 net_40:4 0.0027
7 net_40:4 net_40:5 0.0050
8 net_40:5 inst_49:A3 0.0050
9 net_40:6 inst_0:ZN 0.0050
10 net_40:6 net_40:7 0.0010
*END

*D_NET net_100 0.3921
*CONN
*I inst_91:ZN O
*I inst_57:A1 I
*CAP
1 inst_91:ZN 0.0166
2 inst_57:A1 0.0166
3 net_100:1 0.0791
4 net_100:2 0.0791
5 net_100:3 0.0100
6 net_100:4 0.0100
7 net_100:5 0.0630
8 net_100:6 0.0630
9 net_100:7 0.0198
10 net_100:8 0.0198
11 net_100:9 0.0152
*RES
2 inst_57:A1 net_100:9 0.0050
3 net_100:1 inst_91:ZN 0.0050
4 net_100:1 net_100:2 0.0090
5 net_100:3 net_100:2 0.0050
6 net_100:4 net_100:3 0.0010
7 net_100:5 net_100:4 0.0050
8 net_100:5 net_100:6 0.0015
9 net_100:7 net_100:6 0.0050
10 net_100:8 net_100:7 0.0010
11 net_100:9 net_100:8 0.0050
*END

*D_NET n8gat 2.1738
*CONN
*P n8gat I
*I inst_32:A2 I
*I inst_78:A1 I
*CAP
1 n8gat 0.0010
2 inst_32:A2 0.0166
3 inst_78:A1 0.0166
4 n8gat:1 0.0545
5 n8gat:2 0.0545
6 n8gat:3 0.4257
7 n8gat:4 0.1977
8 n8gat:5 0.0170
9 n8gat:6 0.0170
10 n8gat:7 0.0121
11 n8gat:8 0.0297
12 n8gat:9 0.0297
13 n8gat:10 0.0152
14 n8gat:11 0.0128
15 n8gat:12 0.0128
16 n8gat:13 0.5127
17 n8gat:14 0.5127
18 n8gat:15 0.2356
*RES
2 n8gat n8gat:7 0.0010
3 n8gat:1 inst_78:A1 0.0050
4 n8gat:2 n8gat:1 0.0035
5 n8gat:3 n8gat:2 0.0050
6 n8gat:3 n8gat:15 0.0218
7 n8gat:4 n8gat:3 0.0143
8 n8gat:4 n8gat:5 0.0050
9 n8gat:5 n8gat:6 0.0010
10 n8gat:6 inst_32:A2 0.0050
11 n8gat:8 n8gat:7 0.0050
12 n8gat:9 n8gat:8 0.0025
13 n8gat:10 n8gat:9 0.0050
14 n8gat:11 n8gat:10 0.0050
15 n8gat:12 n8gat:11 0.0010
16 n8gat:13 n8gat:12 0.0050
17 n8gat:13 n8gat:14 0.0158
18 n8gat:15 n8gat:14 0.0050
*END

*D_NET net_85 0.2692
*CONN
*I inst_47:ZN O
*I inst_53:A3 I
*CAP
1 inst_47:ZN 0.0388
2 inst_53:A3 0.0166
3 net_85:1 0.0471
4 net_85:2 0.0152
5 net_85:3 0.0578
6 net_85:4 0.0578
7 net_85:5 0.0180
8 net_85:6 0.0180
*RES
2 inst_53:A3 net_85:6 0.0050
3 net_85:1 inst_47:ZN 0.0052
4 net_85:2 net_85:1 0.0050
5 net_85:3 net_85:2 0.0050
6 net_85:4 net_85:3 0.0054
7 net_85:5 net_85:4 0.0050
8 net_85:5 net_85:6 0.0010
*END

*D_NET net_69 0.3345
*CONN
*I inst_80:ZN O
*I inst_59:A4 I
*CAP
1 inst_80:ZN 0.0140
2 inst_59:A4 0.1151
3 net_69:1 0.0224
4 net_69:2 0.0298
5 net_69:3 0.0298
6 net_69:4 0.1234
*RES
2 inst_80:ZN net_69:1 0.0028
3 net_69:2 net_69:1 0.0050
4 net_69:2 net_69:3 0.0015
5 net_69:4 inst_59:A4 0.0103
6 net_69:4 net_69:3 0.0050
*END

*D_NET net_124 0.7316
*CONN
*I inst_98:ZN O
*I inst_35:A2 I
*I inst_22:A2 I
*I inst_23:A2 I
*CAP
1 inst_98:ZN 0.0299
2 inst_35:A2 0.0166
3 inst_22:A2 0.0166
4 inst_23:A2 0.0166
5 net_124:1 0.0565
6 net_124:2 0.0527
7 net_124:3 0.0667
8 net_124:4 0.1391
9 net_124:5 0.0279
10 net_124:6 0.0279
11 net_124:7 0.0152
12 net_124:8 0.0382
13 net_124:9 0.0382
14 net_124:10 0.0382
15 net_124:11 0.0355
16 net_124:12 0.0355
17 net_124:13 0.0801
*RES
2 inst_98:ZN net_124:10 0.0031
3 net_124:1 inst_22:A2 0.0050
4 net_124:1 net_124:9 0.0050
5 net_124:2 net_124:1 0.0040
6 net_124:3 net_124:2 0.0050
7 net_124:4 net_124:3 0.0034
8 net_124:4 net_124:5 0.0050
9 net_124:6 inst_35:A2 0.0050
10 net_124:6 net_124:5 0.0015
11 net_124:7 inst_23:A2 0.0050
12 net_124:8 net_124:7 0.0050
13 net_124:9 net_124:8 0.0041
14 net_124:11 net_124:10 0.0050
15 net_124:12 net_124:11 0.0025
16 net_124:13 net_124:4 0.0041
17 net_124:13 net_124:12 0.0050
*END

*D_NET net_83 0.1091
*CONN
*I inst_17:ZN O
*I inst_49:A4 I
*CAP
1 inst_17:ZN 0.0166
2 inst_49:A4 0.0166
3 net_83:1 0.0176
4 net_83:2 0.0199
5 net_83:3 0.0203
6 net_83:4 0.0180
*RES
2 inst_49:A4 net_83:4 0.0050
3 net_83:1 inst_17:ZN 0.0050
4 net_83:2 net_83:1 0.0010
5 net_83:3 net_83:2 0.0010
6 net_83:4 net_83:3 0.0015
*END

*D_NET net_115 0.5918
*CONN
*I inst_97:ZN O
*I inst_45:A2 I
*I inst_35:A3 I
*CAP
1 inst_97:ZN 0.0316
2 inst_45:A2 0.0306
3 inst_35:A3 0.0307
4 net_115:1 0.0265
5 net_115:2 0.0152
6 net_115:3 0.0215
7 net_115:4 0.0215
8 net_115:5 0.0222
9 net_115:6 0.0222
10 net_115:7 0.0389
11 net_115:8 0.0399
12 net_115:9 0.0152
13 net_115:10 0.1125
14 net_115:11 0.1125
15 net_115:12 0.0254
16 net_115:13 0.0254
*RES
2 inst_97:ZN net_115:8 0.0041
3 inst_35:A3 net_115:1 0.0031
4 net_115:1 net_115:2 0.0050
5 net_115:2 net_115:3 0.0050
6 net_115:3 net_115:4 0.0014
7 net_115:4 net_115:5 0.0050
8 net_115:6 net_115:5 0.0015
9 net_115:6 net_115:7 0.0050
10 net_115:7 inst_45:A2 0.0041
11 net_115:9 net_115:8 0.0050
12 net_115:10 net_115:9 0.0050
13 net_115:10 net_115:11 0.0122
14 net_115:12 net_115:11 0.0050
15 net_115:12 net_115:13 0.0015
16 net_115:13 inst_35:A3 0.0050
*END

*D_NET n63gat 0.9428
*CONN
*P n63gat I
*I inst_36:A2 I
*I inst_73:A1 I
*CAP
1 n63gat 0.0713
2 inst_36:A2 0.0166
3 inst_73:A1 0.0166
4 n63gat:1 0.0152
5 n63gat:2 0.0277
6 n63gat:3 0.0277
7 n63gat:4 0.1991
8 n63gat:5 0.0360
9 n63gat:6 0.0827
10 n63gat:7 0.1396
11 n63gat:8 0.1396
12 n63gat:9 0.1707
*RES
2 n63gat n63gat:6 0.0056
3 n63gat:1 inst_36:A2 0.0050
4 n63gat:2 n63gat:1 0.0050
5 n63gat:3 n63gat:2 0.0020
6 n63gat:4 n63gat:3 0.0050
7 n63gat:4 n63gat:5 0.0025
8 n63gat:5 inst_73:A1 0.0050
9 n63gat:7 n63gat:6 0.0050
10 n63gat:7 n63gat:8 0.0141
11 n63gat:9 n63gat:4 0.0135
12 n63gat:9 n63gat:8 0.0050
*END

*D_NET net_4 0.2669
*CONN
*I inst_104:ZN O
*I inst_52:A2 I
*CAP
1 inst_104:ZN 0.0166
2 inst_52:A2 0.0166
3 net_4:1 0.0152
4 net_4:2 0.1016
5 net_4:3 0.1016
6 net_4:4 0.0152
*RES
2 inst_52:A2 net_4:4 0.0050
3 net_4:1 inst_104:ZN 0.0050
4 net_4:2 net_4:1 0.0050
5 net_4:2 net_4:3 0.0075
6 net_4:4 net_4:3 0.0050
*END

*D_NET net_95 0.1539
*CONN
*I inst_86:ZN O
*I inst_62:A1 I
*CAP
1 inst_86:ZN 0.0166
2 inst_62:A1 0.0166
3 net_95:1 0.0152