*SPEF "IEEE 1481-1998"
*DESIGN "changes"
*DATE "Tue Dec 02 18:59:51 2014"
*VENDOR "TAU 2015 Contest"
*PROGRAM "Benchmark Parasitic Generator"
*VERSION "0.0"
*DESIGN_FLOW "NETLIST_TYPE_VERILOG"
*DIVIDER /
*DELIMITER :
*BUS_DELIMITER [ ]
*T_UNIT 1 PS
*C_UNIT 1 FF
*R_UNIT 1 KOHM
*L_UNIT 1 UH

*D_NET n43gat 5.2605
*CONN
*I TAUGATE_245:Z O
*I inst_131:A1 I
*I inst_59:A2 I
*I inst_107:A I
*I inst_50:A1 I
*CAP
1 TAUGATE_245:Z 0.2611
2 n43gat:1 0.4098
3 n43gat:2 0.5009
4 n43gat:3 0.2843
5 inst_59:A2 0.2878
6 n43gat:4 0.4685
7 n43gat:5 0.3070
8 n43gat:6 0.3583
9 inst_131:A1 0.1395
10 n43gat:7 0.4644
11 n43gat:8 0.4559
12 n43gat:9 0.4050
13 n43gat:10 0.0154
14 inst_107:A 0.1670
15 n43gat:11 0.2909
16 n43gat:12 0.3706
17 inst_50:A1 0.0740
*RES
2 TAUGATE_245:Z n43gat:1 0.1659
3 n43gat:1 n43gat:2 0.2742
4 n43gat:2 n43gat:3 0.3494
5 n43gat:3 inst_59:A2 0.1485
6 n43gat:3 n43gat:4 0.0646
7 n43gat:4 n43gat:5 0.0794
8 n43gat:5 n43gat:6 0.2161
9 n43gat:6 inst_131:A1 0.1614
10 n43gat:4 n43gat:7 0.1555
11 n43gat:7 n43gat:8 0.2440
12 n43gat:8 n43gat:9 0.0332
13 n43gat:9 n43gat:10 0.0406
14 n43gat:10 inst_107:A 0.2732
15 n43gat:3 n43gat:11 0.4871
16 n43gat:11 n43gat:12 0.4951
17 n43gat:12 inst_50:A1 0.4125
*END

*D_NET net_47 2.0620
*CONN
*I TAUGATE_242:Z O
*I inst_29:A3 I
*I inst_32:A3 I
*CAP
1 TAUGATE_242:Z 0.1285
2 net_47:1 0.2926
3 inst_29:A3 0.4507
4 net_47:2 0.0305
5 net_47:3 0.2383
6 net_47:4 0.4020
7 net_47:5 0.2529
8 inst_32:A3 0.2665
*RES
2 TAUGATE_242:Z net_47:1 0.3356
3 net_47:1 inst_29:A3 0.3995
4 net_47:1 net_47:2 0.4354
5 net_47:2 net_47:3 0.1977
6 net_47:3 net_47:4 0.0788
7 net_47:4 net_47:5 0.3276
8 net_47:5 inst_32:A3 0.3833
*END

*D_NET n34gat 2.0296
*CONN
*I TAUGATE_224:Z O
*I inst_81:A1 I
*I inst_119:A I
*CAP
1 TAUGATE_224:Z 0.0716
2 n34gat:1 0.1922
3 n34gat:2 0.2805
4 n34gat:3 0.1322
5 inst_119:A 0.1905
6 n34gat:4 0.2211
7 n34gat:5 0.1955
8 n34gat:6 0.1868
9 n34gat:7 0.4889
10 inst_81:A1 0.0703
*RES
2 TAUGATE_224:Z n34gat:1 0.4017
3 n34gat:1 n34gat:2 0.4680
4 n34gat:2 n34gat:3 0.2976
5 n34gat:3 inst_119:A 0.2331
6 n34gat:2 n34gat:4 0.3298
7 n34gat:4 n34gat:5 0.4131
8 n34gat:5 n34gat:6 0.3310
9 n34gat:6 n34gat:7 0.2621
10 n34gat:7 inst_81:A1 0.4792
*END

*D_NET n82gat 3.6029
*CONN
*I TAUGATE_119:Z O
*I inst_55:A2 I
*I inst_116:A I
*CAP
1 TAUGATE_119:Z 0.0717
2 n82gat:1 0.4035
3 n82gat:2 0.0219
4 n82gat:3 0.0830
5 n82gat:4 0.4539
6 inst_55:A2 0.1250
7 n82gat:5 0.3498
8 n82gat:6 0.4055
9 n82gat:7 0.4519
10 n82gat:8 0.4658
11 n82gat:9 0.3690
12 inst_116:A 0.4019
*RES
2 TAUGATE_119:Z n82gat:1 0.3196
3 n82gat:1 n82gat:2 0.4976
4 n82gat:2 n82gat:3 0.3591
5 n82gat:3 n82gat:4 0.2780
6 n82gat:4 inst_55:A2 0.2022
7 n82gat:1 n82gat:5 0.0632
8 n82gat:5 n82gat:6 0.2503
9 n82gat:6 n82gat:7 0.4700
10 n82gat:7 n82gat:8 0.3789
11 n82gat:8 n82gat:9 0.3545
12 n82gat:9 inst_116:A 0.1033
*END

*D_NET n99gat 2.1847
*CONN
*I TAUGATE_178:Z O
*I inst_84:A1 I
*I inst_102:A I
*CAP
1 TAUGATE_178:Z 0.1782
2 n99gat:1 0.0376
3 n99gat:2 0.0972
4 n99gat:3 0.3594
5 n99gat:4 0.0525
6 n99gat:5 0.3248
7 inst_102:A 0.2597
8 n99gat:6 0.4443
9 n99gat:7 0.1288
10 inst_84:A1 0.3022
*RES
2 TAUGATE_178:Z n99gat:1 0.1267
3 n99gat:1 n99gat:2 0.3840
4 n99gat:2 n99gat:3 0.2434
5 n99gat:3 n99gat:4 0.3726
6 n99gat:4 n99gat:5 0.2980
7 n99gat:5 inst_102:A 0.2454
8 n99gat:2 n99gat:6 0.1405
9 n99gat:6 n99gat:7 0.0668
10 n99gat:7 inst_84:A1 0.3699
*END

*D_NET TAUNET_275 1.5989
*CONN
*I TAUGATE_26:Z O
*I TAUGATE_275:A I
*CAP
1 TAUGATE_26:Z 0.4004
2 TAUNET_275:1 0.1341
3 TAUNET_275:2 0.3915
4 TAUNET_275:3 0.0282
5 TAUNET_275:4 0.3089
6 TAUNET_275:5 0.0253
7 TAUGATE_275:A 0.3105
*RES
2 TAUGATE_26:Z TAUNET_275:1 0.1881
3 TAUNET_275:1 TAUNET_275:2 0.2034
4 TAUNET_275:2 TAUNET_275:3 0.1592
5 TAUNET_275:3 TAUNET_275:4 0.3147
6 TAUNET_275:4 TAUNET_275:5 0.2761
7 TAUNET_275:5 TAUGATE_275:A 0.3643
*END

*D_NET TAUNET_114 1.2795
*CONN
*I inst_10:ZN O
*I TAUGATE_114:A I
*CAP
1 inst_10:ZN 0.0666
2 TAUNET_114:1 0.3580
3 TAUNET_114:2 0.3774
4 TAUNET_114:3 0.2731
5 TAUNET_114:4 0.1525
6 TAUGATE_114:A 0.0518
*RES
2 inst_10:ZN TAUNET_114:1 0.2548
3 TAUNET_114:1 TAUNET_114:2 0.2154
4 TAUNET_114:2 TAUNET_114:3 0.4921
5 TAUNET_114:3 TAUNET_114:4 0.1648
6 TAUNET_114:4 TAUGATE_114:A 0.1855
*END

*D_NET net_54 1.9582
*CONN
*I TAUGATE_214:Z O
*I inst_42:A2 I
*I inst_11:A I
*CAP
1 TAUGATE_214:Z 0.3530
2 net_54:1 0.2239
3 net_54:2 0.0917
4 inst_42:A2 0.4230
5 net_54:3 0.4381
6 net_54:4 0.3484
7 inst_11:A 0.0801
*RES
2 TAUGATE_214:Z net_54:1 0.1494
3 net_54:1 net_54:2 0.3290
4 net_54:2 inst_42:A2 0.1620
5 net_54:2 net_54:3 0.1392
6 net_54:3 net_54:4 0.1891
7 net_54:4 inst_11:A 0.0464
*END

*D_NET net_105 1.0649
*CONN
*I TAUGATE_184:Z O
*I inst_95:A2 I
*CAP
1 TAUGATE_184:Z 0.0279
2 net_105:1 0.0649
3 net_105:2 0.0510
4 net_105:3 0.1600
5 net_105:4 0.1748
6 net_105:5 0.4787
7 inst_95:A2 0.1076
*RES
2 TAUGATE_184:Z net_105:1 0.4606
3 net_105:1 net_105:2 0.3388
4 net_105:2 net_105:3 0.4657
5 net_105:3 net_105:4 0.3595
6 net_105:4 net_105:5 0.2471
7 net_105:5 inst_95:A2 0.0832
*END

*D_NET TAUNET_232 0.8209
*CONN
*I TAUGATE_55:Z O
*I TAUGATE_232:A I
*CAP
1 TAUGATE_55:Z 0.3736
2 TAUNET_232:1 0.3644
3 TAUGATE_232:A 0.0829
*RES
2 TAUGATE_55:Z TAUNET_232:1 0.1977
3 TAUNET_232:1 TAUGATE_232:A 0.4694
*END

*D_NET TAUNET_77 2.0853
*CONN
*I inst_90:ZN O
*I TAUGATE_77:A I
*CAP
1 inst_90:ZN 0.3882
2 TAUNET_77:1 0.0413
3 TAUNET_77:2 0.4651
4 TAUNET_77:3 0.4065
5 TAUNET_77:4 0.3164
6 TAUNET_77:5 0.3513
7 TAUGATE_77:A 0.1165
*RES
2 inst_90:ZN TAUNET_77:1 0.0986
3 TAUNET_77:1 TAUNET_77:2 0.2243
4 TAUNET_77:2 TAUNET_77:3 0.1286
5 TAUNET_77:3 TAUNET_77:4 0.4269
6 TAUNET_77:4 TAUNET_77:5 0.2482
7 TAUNET_77:5 TAUGATE_77:A 0.2195
*END

*D_NET net_119 1.7569
*CONN
*I TAUGATE_272:Z O
*I inst_18:A2 I
*CAP
1 TAUGATE_272:Z 0.4091
2 net_119:1 0.3587
3 net_119:2 0.1869
4 net_119:3 0.4974
5 inst_18:A2 0.3047
*RES
2 TAUGATE_272:Z net_119:1 0.1200
3 net_119:1 net_119:2 0.4969
4 net_119:2 net_119:3 0.1210
5 net_119:3 inst_18:A2 0.1733
*END

*D_NET net_98 1.1896
*CONN
*I TAUGATE_63:Z O
*I inst_55:A1 I
*CAP
1 TAUGATE_63:Z 0.0283
2 net_98:1 0.2945
3 net_98:2 0.3177
4 net_98:3 0.2101
5 inst_55:A1 0.3390
*RES
2 TAUGATE_63:Z net_98:1 0.2046
3 net_98:1 net_98:2 0.3404
4 net_98:2 net_98:3 0.1317
5 net_98:3 inst_55:A1 0.3617
*END

*D_NET net_12 1.2055
*CONN
*I TAUGATE_268:Z O
*I inst_128:A2 I
*CAP
1 TAUGATE_268:Z 0.3629
2 net_12:1 0.3900
3 net_12:2 0.0557
4 net_12:3 0.1253
5 inst_128:A2 0.2716
*RES
2 TAUGATE_268:Z net_12:1 0.3735
3 net_12:1 net_12:2 0.1079
4 net_12:2 net_12:3 0.3323
5 net_12:3 inst_128:A2 0.2907
*END

*D_NET TAUNET_124 1.4383
*CONN
*I TAUGATE_15:Z O
*I TAUGATE_124:A I
*CAP
1 TAUGATE_15:Z 0.4966
2 TAUNET_124:1 0.2702
3 TAUNET_124:2 0.2135
4 TAUNET_124:3 0.0419
5 TAUNET_124:4 0.2773
6 TAUNET_124:5 0.0903
7 TAUGATE_124:A 0.0485
*RES
2 TAUGATE_15:Z TAUNET_124:1 0.4602
3 TAUNET_124:1 TAUNET_124:2 0.4262
4 TAUNET_124:2 TAUNET_124:3 0.2009
5 TAUNET_124:3 TAUNET_124:4 0.3114
6 TAUNET_124:4 TAUNET_124:5 0.3090
7 TAUNET_124:5 TAUGATE_124:A 0.3972
*END

*D_NET TAUNET_217 1.1430
*CONN
*P n34gat I
*I TAUGATE_217:A I
*CAP
1 n34gat 0.2443
2 TAUNET_217:1 0.3734
3 TAUNET_217:2 0.1567
4 TAUNET_217:3 0.1247
5 TAUGATE_217:A 0.2439
*RES
2 n34gat TAUNET_217:1 0.2588
3 TAUNET_217:1 TAUNET_217:2 0.4474
4 TAUNET_217:2 TAUNET_217:3 0.3528
5 TAUNET_217:3 TAUGATE_217:A 0.0472
*END

*D_NET net_53 1.3929
*CONN
*I TAUGATE_123:Z O
*I inst_13:A I
*CAP
1 TAUGATE_123:Z 0.1981
2 net_53:1 0.0169
3 net_53:2 0.4026
4 net_53:3 0.4684
5 net_53:4 0.2490
6 inst_13:A 0.0579
*RES
2 TAUGATE_123:Z net_53:1 0.0423
3 net_53:1 net_53:2 0.2861
4 net_53:2 net_53:3 0.4278
5 net_53:3 net_53:4 0.3875
6 net_53:4 inst_13:A 0.4796
*END

*D_NET TAUNET_103 1.0064
*CONN
*I inst_18:ZN O
*I TAUGATE_103:A I
*CAP
1 inst_18:ZN 0.1554
2 TAUNET_103:1 0.4380
3 TAUGATE_103:A 0.4130
*RES
2 inst_18:ZN TAUNET_103:1 0.4990
3 TAUNET_103:1 TAUGATE_103:A 0.2134
*END

*D_NET net_93 2.0765
*CONN
*I TAUGATE_186:Z O
*I inst_31:A2 I
*CAP
1 TAUGATE_186:Z 0.4947
2 net_93:1 0.2854
3 net_93:2 0.4464
4 net_93:3 0.2438
5 net_93:4 0.2969
6 inst_31:A2 0.3091
*RES
2 TAUGATE_186:Z net_93:1 0.5006
3 net_93:1 net_93:2 0.2264
4 net_93:2 net_93:3 0.3973
5 net_93:3 net_93:4 0.2044
6 net_93:4 inst_31:A2 0.1531
*END

*D_NET TAUNET_177 1.2691
*CONN
*I inst_114:ZN O
*I TAUGATE_177:A I
*CAP
1 inst_114:ZN 0.2618
2 TAUNET_177:1 0.4002
3 TAUNET_177:2 0.3652
4 TAUNET_177:3 0.1857
5 TAUGATE_177:A 0.0562
*RES
2 inst_114:ZN TAUNET_177:1 0.0882
3 TAUNET_177:1 TAUNET_177:2 0.4386
4 TAUNET_177:2 TAUNET_177:3 0.2715
5 TAUNET_177:3 TAUGATE_177:A 0.0199
*END

*D_NET TAUNET_270 0.5520
*CONN
*I TAUGATE_59:Z O
*I TAUGATE_270:A I
*CAP
1 TAUGATE_59:Z 0.1459
2 TAUNET_270:1 0.1026
3 TAUNET_270:2 0.1939
4 TAUGATE_270:A 0.1095
*RES
2 TAUGATE_59:Z TAUNET_270:1 0.0212
3 TAUNET_270:1 TAUNET_270:2 0.1417
4 TAUNET_270:2 TAUGATE_270:A 0.2190
*END

*D_NET TAUNET_255 1.5644
*CONN
*I inst_100:ZN O
*I TAUGATE_255:A I
*CAP
1 inst_100:ZN 0.1138
2 TAUNET_255:1 0.3663
3 TAUNET_255:2 0.2540
4 TAUNET_255:3 0.0526
5 TAUNET_255:4 0.2388
6 TAUNET_255:5 0.1787
7 TAUGATE_255:A 0.3603
*RES
2 inst_100:ZN TAUNET_255:1 0.0603
3 TAUNET_255:1 TAUNET_255:2 0.0863
4 TAUNET_255:2 TAUNET_255:3 0.3102
5 TAUNET_255:3 TAUNET_255:4 0.1239
6 TAUNET_255:4 TAUNET_255:5 0.2473
7 TAUNET_255:5 TAUGATE_255:A 0.0055
*END

*D_NET TAUNET_31 1.2459
*CONN
*I TAUGATE_185:Z O
*I TAUGATE_31:A I
*CAP
1 TAUGATE_185:Z 0.2412
2 TAUNET_31:1 0.4441
3 TAUNET_31:2 0.4218
4 TAUNET_31:3 0.0848
5 TAUNET_31:4 0.0266
6 TAUGATE_31:A 0.0274
*RES
2 TAUGATE_185:Z TAUNET_31:1 0.4218
3 TAUNET_31:1 TAUNET_31:2 0.2061
4 TAUNET_31:2 TAUNET_31:3 0.2110
5 TAUNET_31:3 TAUNET_31:4 0.4583
6 TAUNET_31:4 TAUGATE_31:A 0.3985
*END

*D_NET TAUNET_243 1.9898
*CONN
*I inst_60:ZN O
*I TAUGATE_243:A I
*CAP
1 inst_60:ZN 0.0725
2 TAUNET_243:1 0.3124
3 TAUNET_243:2 0.3685
4 TAUNET_243:3 0.4317
5 TAUNET_243:4 0.1801
6 TAUNET_243:5 0.2826
7 TAUGATE_243:A 0.3420
*RES
2 inst_60:ZN TAUNET_243:1 0.0965
3 TAUNET_243:1 TAUNET_243:2 0.2555
4 TAUNET_243:2 TAUNET_243:3 0.1304
5 TAUNET_243:3 TAUNET_243:4 0.3675
6 TAUNET_243:4 TAUNET_243:5 0.4634
7 TAUNET_243:5 TAUGATE_243:A 0.2869
*END

*D_NET TAUNET_71 0.5511
*CONN
*I inst_16:ZN O
*I TAUGATE_71:A I
*CAP
1 inst_16:ZN 0.1182
2 TAUNET_71:1 0.0608
3 TAUGATE_71:A 0.3721
*RES
2 inst_16:ZN TAUNET_71:1 0.4648
3 TAUNET_71:1 TAUGATE_71:A 0.2376
*END

*D_NET TAUNET_91 0.8353
*CONN
*I inst_78:ZN O
*I TAUGATE_91:A I
*CAP
1 inst_78:ZN 0.3081
2 TAUNET_91:1 0.0264
3 TAUNET_91:2 0.2502
4 TAUGATE_91:A 0.2506
*RES
2 inst_78:ZN TAUNET_91:1 0.4486
3 TAUNET_91:1 TAUNET_91:2 0.0641
4 TAUNET_91:2 TAUGATE_91:A 0.0138
*END

*D_NET TAUNET_57 0.7959
*CONN
*I TAUGATE_104:Z O
*I TAUGATE_57:A I
*CAP
1 TAUGATE_104:Z 0.0204
2 TAUNET_57:1 0.1001
3 TAUNET_57:2 0.2747
4 TAUNET_57:3 0.1704
5 TAUGATE_57:A 0.2303
*RES
2 TAUGATE_104:Z TAUNET_57:1 0.0121
3 TAUNET_57:1 TAUNET_57:2 0.0620
4 TAUNET_57:2 TAUNET_57:3 0.0267
5 TAUNET_57:3 TAUGATE_57:A 0.1278
*END

*D_NET TAUNET_208 1.5058
*CONN
*I inst_88:ZN O
*I TAUGATE_208:A I
*CAP
1 inst_88:ZN 0.3621
2 TAUNET_208:1 0.3490
3 TAUNET_208:2 0.4751
4 TAUGATE_208:A 0.3195
*RES
2 inst_88:ZN TAUNET_208:1 0.4748
3 TAUNET_208:1 TAUNET_208:2 0.2505
4 TAUNET_208:2 TAUGATE_208:A 0.2036
*END

*D_NET n56gat 5.4180
*CONN
*I TAUGATE_202:Z O
*I inst_51:A1 I
*I inst_57:A2 I
*I inst_108:A I
*I inst_128:A1 I
*CAP
1 TAUGATE_202:Z 0.0185
2 n56gat:1 0.2437
3 n56gat:2 0.3641
4 n56gat:3 0.1411
5 n56gat:4 0.2452
6 inst_128:A1 0.2723
7 n56gat:5 0.0937
8 n56gat:6 0.2944
9 inst_57:A2 0.3987
10 n56gat:7 0.1157
11 n56gat:8 0.1901
12 n56gat:9 0.2138
13 n56gat:10 0.5008
14 n56gat:11 0.2979
15 inst_108:A 0.3428
16 n56gat:12 0.3676
17 n56gat:13 0.1603
18 n56gat:14 0.4423
19 n56gat:15 0.1159
20 n56gat:16 0.4527
21 inst_51:A1 0.1465
*RES
2 TAUGATE_202:Z n56gat:1 0.2079
3 n56gat:1 n56gat:2 0.2449
4 n56gat:2 n56gat:3 0.0406
5 n56gat:3 n56gat:4 0.0917
6 n56gat:4 inst_128:A1 0.0078
7 n56gat:2 n56gat:5 0.0209
8 n56gat:5 n56gat:6 0.1182
9 n56gat:6 inst_57:A2 0.1067
10 n56gat:5 n56gat:7 0.2325
11 n56gat:7 n56gat:8 0.2733
12 n56gat:8 n56gat:9 0.1266
13 n56gat:9 n56gat:10 0.3814
14 n56gat:10 n56gat:11 0.1363
15 n56gat:11 inst_108:A 0.3277
16 n56gat:7 n56gat:12 0.1463
17 n56gat:12 n56gat:13 0.4621
18 n56gat:13 n56gat:14 0.4065
19 n56gat:14 n56gat:15 0.0227
20 n56gat:15 n56gat:16 0.2236
21 n56gat:16 inst_51:A1 0.4114
*END

*D_NET TAUNET_9 0.9678
*CONN
*I TAUGATE_106:Z O
*I TAUGATE_9:A I
*CAP
1 TAUGATE_106:Z 0.1546
2 TAUNET_9:1 0.4367
3 TAUNET_9:2 0.3452
4 TAUGATE_9:A 0.0313
*RES
2 TAUGATE_106:Z TAUNET_9:1 0.1217
3 TAUNET_9:1 TAUNET_9:2 0.0111
4 TAUNET_9:2 TAUGATE_9:A 0.1222
*END

*D_NET TAUNET_240 2.0377
*CONN
*I TAUGATE_40:Z O
*I TAUGATE_240:A I
*CAP
1 TAUGATE_40:Z 0.1692
2 TAUNET_240:1 0.4978
3 TAUNET_240:2 0.2563
4 TAUNET_240:3 0.2595
5 TAUNET_240:4 0.2603
6 TAUNET_240:5 0.2874
7 TAUGATE_240:A 0.3072
*RES
2 TAUGATE_40:Z TAUNET_240:1 0.2768
3 TAUNET_240:1 TAUNET_240:2 0.1679
4 TAUNET_240:2 TAUNET_240:3 0.2053
5 TAUNET_240:3 TAUNET_240:4 0.2140
6 TAUNET_240:4 TAUNET_240:5 0.3306
7 TAUNET_240:5 TAUGATE_240:A 0.1569
*END

*D_NET TAUNET_128 2.5545
*CONN
*I inst_115:ZN O
*I TAUGATE_128:A I
*CAP
1 inst_115:ZN 0.2138
2 TAUNET_128:1 0.3806
3 TAUNET_128:2 0.4946
4 TAUNET_128:3 0.4608
5 TAUNET_128:4 0.4692
6 TAUNET_128:5 0.4766
7 TAUGATE_128:A 0.0589
*RES
2 inst_115:ZN TAUNET_128:1 0.0962
3 TAUNET_128:1 TAUNET_128:2 0.2415
4 TAUNET_128:2 TAUNET_128:3 0.1750
5 TAUNET_128:3 TAUNET_128:4 0.4103
6 TAUNET_128:4 TAUNET_128:5 0.0845
7 TAUNET_128:5 TAUGATE_128:A 0.1888
*END

*D_NET TAUNET_161 1.2719
*CONN
*I inst_3:ZN O
*I TAUGATE_161:A I
*CAP
1 inst_3:ZN 0.1762
2 TAUNET_161:1 0.0806
3 TAUNET_161:2 0.0407
4 TAUNET_161:3 0.2069
5 TAUNET_161:4 0.0491
6 TAUNET_161:5 0.4137
7 TAUGATE_161:A 0.3046
*RES
2 inst_3:ZN TAUNET_161:1 0.2987
3 TAUNET_161:1 TAUNET_161:2 0.2640
4 TAUNET_161:2 TAUNET_161:3 0.1831
5 TAUNET_161:3 TAUNET_161:4 0.4110
6 TAUNET_161:4 TAUNET_161:5 0.0191
7 TAUNET_161:5 TAUGATE_161:A 0.3538
*END

*D_NET net_76 0.8608
*CONN
*I TAUGATE_114:Z O
*I inst_50:A4 I
*CAP
1 TAUGATE_114:Z 0.3629
2 net_76:1 0.2007
3 inst_50:A4 0.2971
*RES
2 TAUGATE_114:Z net_76:1 0.4025
3 net_76:1 inst_50:A4 0.5010
*END

*D_NET TAUNET_249 0.8674
*CONN
*I TAUGATE_29:Z O
*I TAUGATE_249:A I
*CAP
1 TAUGATE_29:Z 0.4649
2 TAUNET_249:1 0.1062
3 TAUGATE_249:A 0.2963
*RES
2 TAUGATE_29:Z TAUNET_249:1 0.4911
3 TAUNET_249:1 TAUGATE_249:A 0.2002
*END

*D_NET net_101 1.0917
*CONN
*I TAUGATE_130:Z O
*I inst_59:A1 I
*CAP
1 TAUGATE_130:Z 0.3761
2 net_101:1 0.4298
3 inst_59:A1 0.2857
*RES
2 TAUGATE_130:Z net_101:1 0.2634
3 net_101:1 inst_59:A1 0.0470
*END

*D_NET net_111 2.8851
*CONN
*I TAUGATE_207:Z O
*I inst_33:A2 I
*I inst_95:A1 I
*CAP
1 TAUGATE_207:Z 0.1738
2 net_111:1 0.4556
3 net_111:2 0.1284
4 net_111:3 0.0036
5 net_111:4 0.1731
6 net_111:5 0.2737
7 inst_33:A2 0.3095
8 net_111:6 0.1458
9 net_111:7 0.4915
10 net_111:8 0.0683
11 net_111:9 0.2135
12 inst_95:A1 0.4484
*RES
2 TAUGATE_207:Z net_111:1 0.4895
3 net_111:1 net_111:2 0.4033
4 net_111:2 net_111:3 0.2734
5 net_111:3 net_111:4 0.3461
6 net_111:4 net_111:5 0.3729
7 net_111:5 inst_33:A2 0.0418
8 net_111:5 net_111:6 0.1379
9 net_111:6 net_111:7 0.1139
10 net_111:7 net_111:8 0.0489
11 net_111:8 net_111:9 0.0861
12 net_111:9 inst_95:A1 0.1477
*END

*D_NET TAUNET_192 0.7137
*CONN
*P n30gat I
*I TAUGATE_192:A I
*CAP
1 n30gat 0.3473
2 TAUNET_192:1 0.0198
3 TAUNET_192:2 0.2366
4 TAUGATE_192:A 0.1100
*RES
2 n30gat TAUNET_192:1 0.2818
3 TAUNET_192:1 TAUNET_192:2 0.3290
4 TAUNET_192:2 TAUGATE_192:A 0.1592
*END

*D_NET TAUNET_151 1.5722
*CONN
*I inst_125:ZN O
*I TAUGATE_151:A I
*CAP
1 inst_125:ZN 0.3328
2 TAUNET_151:1 0.5003
3 TAUNET_151:2 0.4347
4 TAUGATE_151:A 0.3044
*RES
2 inst_125:ZN TAUNET_151:1 0.1394
3 TAUNET_151:1 TAUNET_151:2 0.0096
4 TAUNET_151:2 TAUGATE_151:A 0.4963
*END

*D_NET net_90 1.4897
*CONN
*I TAUGATE_148:Z O
*I inst_64:A1 I
*CAP
1 TAUGATE_148:Z 0.2571
2 net_90:1 0.0042
3 net_90:2 0.2690
4 net_90:3 0.3841
5 net_90:4 0.3400
6 inst_64:A1 0.2352
*RES
2 TAUGATE_148:Z net_90:1 0.3112
3 net_90:1 net_90:2 0.1345
4 net_90:2 net_90:3 0.4134
5 net_90:3 net_90:4 0.0741
6 net_90:4 inst_64:A1 0.4290
*END

*D_NET TAUNET_141 0.8363
*CONN
*P n102gat I
*I TAUGATE_141:A I
*CAP
1 n102gat 0.0621
2 TAUNET_141:1 0.2034
3 TAUNET_141:2 0.1253
4 TAUNET_141:3 0.2112
5 TAUGATE_141:A 0.2343
*RES
2 n102gat TAUNET_141:1 0.1106
3 TAUNET_141:1 TAUNET_141:2 0.0283
4 TAUNET_141:2 TAUNET_141:3 0.2644
5 TAUNET_141:3 TAUGATE_141:A 0.3395
*END

*D_NET net_100 0.5168
*CONN
*I TAUGATE_133:Z O
*I inst_57:A1 I
*CAP
1 TAUGATE_133:Z 0.1311
2 net_100:1 0.0535
3 net_100:2 0.0383
4 inst_57:A1 0.2939
*RES
2 TAUGATE_133:Z net_100:1 0.2177
3 net_100:1 net_100:2 0.0520
4 net_100:2 inst_57:A1 0.1787
*END

*D_NET net_85 1.2588
*CONN
*I TAUGATE_126:Z O
*I inst_53:A3 I
*CAP
1 TAUGATE_126:Z 0.2308
2 net_85:1 0.4154
3 net_85:2 0.4205
4 inst_53:A3 0.1921
*RES
2 TAUGATE_126:Z net_85:1 0.3303
3 net_85:1 net_85:2 0.0500
4 net_85:2 inst_53:A3 0.3450
*END

*D_NET net_124 2.6283
*CONN
*I TAUGATE_199:Z O
*I inst_35:A2 I
*I inst_22:A2 I
*I inst_23:A2 I
*CAP
1 TAUGATE_199:Z 0.2397
2 net_124:1 0.0450
3 net_124:2 0.3586
4 net_124:3 0.1804
5 net_124:4 0.2132
6 inst_22:A2 0.3448
7 net_124:5 0.3825
8 inst_35:A2 0.4916
9 net_124:6 0.0730
10 inst_23:A2 0.2996
*RES
2 TAUGATE_199:Z net_124:1 0.2539
3 net_124:1 net_124:2 0.0169
4 net_124:2 net_124:3 0.2910
5 net_124:3 net_124:4 0.3418
6 net_124:4 inst_22:A2 0.0277
7 net_124:2 net_124:5 0.0258
8 net_124:5 inst_35:A2 0.0722
9 net_124:1 net_124:6 0.1500
10 net_124:6 inst_23:A2 0.2720
*END

*D_NET TAUNET_49 1.4119
*CONN
*I TAUGATE_237:Z O
*I TAUGATE_49:A I
*CAP
1 TAUGATE_237:Z 0.1555
2 TAUNET_49:1 0.2976
3 TAUNET_49:2 0.3531
4 TAUNET_49:3 0.0316
5 TAUNET_49:4 0.1823
6 TAUNET_49:5 0.0755
7 TAUGATE_49:A 0.3163
*RES
2 TAUGATE_237:Z TAUNET_49:1 0.3515
3 TAUNET_49:1 TAUNET_49:2 0.2983
4 TAUNET_49:2 TAUNET_49:3 0.4269
5 TAUNET_49:3 TAUNET_49:4 0.0493
6 TAUNET_49:4 TAUNET_49:5 0.0341
7 TAUNET_49:5 TAUGATE_49:A 0.3020
*END

*D_NET TAUNET_201 1.2913
*CONN
*I inst_104:ZN O
*I TAUGATE_201:A I
*CAP
1 inst_104:ZN 0.4000
2 TAUNET_201:1 0.4709
3 TAUGATE_201:A 0.4204
*RES
2 inst_104:ZN TAUNET_201:1 0.0122
3 TAUNET_201:1 TAUGATE_201:A 0.2688
*END

*D_NET TAUNET_87 0.9187
*CONN
*I inst_95:ZN O
*I TAUGATE_87:A I
*CAP
1 inst_95:ZN 0.3051
2 TAUNET_87:1 0.2956
3 TAUNET_87:2 0.2210
4 TAUGATE_87:A 0.0970
*RES
2 inst_95:ZN TAUNET_87:1 0.2798
3 TAUNET_87:1 TAUNET_87:2 0.3150
4 TAUNET_87:2 TAUGATE_87:A 0.0137
*END

*D_NET TAUNET_231 0.8876
*CONN
*I TAUGATE_25:Z O
*I TAUGATE_231:A I
*CAP
1 TAUGATE_25:Z 0.3101
2 TAUNET_231:1 0.2047
3 TAUGATE_231:A 0.3729
*RES
2 TAUGATE_25:Z TAUNET_231:1 0.0610
3 TAUNET_231:1 TAUGATE_231:A 0.4010
*END

*D_NET net_115 3.3500
*CONN
*I TAUGATE_92:Z O
*I inst_35:A3 I
*I inst_45:A2 I
*CAP
1 TAUGATE_92:Z 0.3768
2 net_115:1 0.1250
3 net_115:2 0.3526
4 net_115:3 0.3715
5 net_115:4 0.3144
6 inst_45:A2 0.3618
7 net_115:5 0.4981
8 net_115:6 0.3134
9 net_115:7 0.4059
10 net_115:8 0.1396
11 inst_35:A3 0.0910
*RES
2 TAUGATE_92:Z net_115:1 0.0820
3 net_115:1 net_115:2 0.2174
4 net_115:2 net_115:3 0.3638
5 net_115:3 net_115:4 0.4097
6 net_115:4 inst_45:A2 0.2418
7 net_115:4 net_115:5 0.1278
8 net_115:5 net_115:6 0.3093
9 net_115:6 net_115:7 0.3342
10 net_115:7 net_115:8 0.2150
11 net_115:8 inst_35:A3 0.0109
*END

*D_NET TAUNET_50 0.4329
*CONN
*I TAUGATE_127:Z O
*I TAUGATE_50:A I
*CAP
1 TAUGATE_127:Z 0.2298
2 TAUNET_50:1 0.0044
3 TAUGATE_50:A 0.1986
*RES
2 TAUGATE_127:Z TAUNET_50:1 0.0476
3 TAUNET_50:1 TAUGATE_50:A 0.0521
*END

*D_NET n63gat 2.5738
*CONN
*I TAUGATE_280:Z O
*I inst_36:A2 I
*I inst_73:A1 I
*CAP
1 TAUGATE_280:Z 0.0043
2 n63gat:1 0.4724
3 n63gat:2 0.2677
4 n63gat:3 0.2426
5 inst_36:A2 0.1466
6 n63gat:4 0.0309
7 n63gat:5 0.1138
8 n63gat:6 0.3809
9 n63gat:7 0.3567
10 n63gat:8 0.3242
11 inst_73:A1 0.2336
*RES
2 TAUGATE_280:Z n63gat:1 0.2784
3 n63gat:1 n63gat:2 0.2008
4 n63gat:2 n63gat:3 0.3776
5 n63gat:3 inst_36:A2 0.2937
6 n63gat:2 n63gat:4 0.3863
7 n63gat:4 n63gat:5 0.2365
8 n63gat:5 n63gat:6 0.1037
9 n63gat:6 n63gat:7 0.3572
10 n63gat:7 n63gat:8 0.2211
11 n63gat:8 inst_73:A1 0.2185
*END

*D_NET TAUNET_72 1.2191
*CONN
*I inst_106:ZN O
*I TAUGATE_72:A I
*CAP
1 inst_106:ZN 0.2538
2 TAUNET_72:1 0.4791
3 TAUNET_72:2 0.2417
4 TAUGATE_72:A 0.2444
*RES
2 inst_106:ZN TAUNET_72:1 0.4262
3 TAUNET_72:1 TAUNET_72:2 0.3737
4 TAUNET_72:2 TAUGATE_72:A 0.3015
*END

*D_NET net_4 1.5079
*CONN
*I TAUGATE_201:Z O
*I inst_52:A2 I
*CAP
1 TAUGATE_201:Z 0.3035
2 net_4:1 0.0863
3 net_4:2 0.2362
4 net_4:3 0.1365
5 net_4:4 0.0277
6 net_4:5 0.4263
7 inst_52:A2 0.2912
*RES
2 TAUGATE_201:Z net_4:1 0.1111
3 net_4:1 net_4:2 0.3711
4 net_4:2 net_4:3 0.0512
5 net_4:3 net_4:4 0.1351
6 net_4:4 net_4:5 0.0984
7 net_4:5 inst_52:A2 0.0368
*END

*D_NET net_17 1.0413
*CONN
*I TAUGATE_234:Z O
*I inst_132:A2 I
*CAP
1 TAUGATE_234:Z 0.1423
2 net_17:1 0.1146
3 net_17:2 0.3234
4 inst_132:A2 0.4610
*RES
2 TAUGATE_234:Z net_17:1 0.4832
3 net_17:1 net_17:2 0.2776
4 net_17:2 inst_132:A2 0.3781
*END

*D_NET TAUNET_134 1.1921
*CONN
*I inst_46:ZN O
*I TAUGATE_134:A I
*CAP
1 inst_46:ZN 0.0185
2 TAUNET_134:1 0.1588
3 TAUNET_134:2 0.3738
4 TAUNET_134:3 0.4556
5 TAUNET_134:4 0.1835
6 TAUGATE_134:A 0.0020
*RES
2 inst_46:ZN TAUNET_134:1 0.2614
3 TAUNET_134:1 TAUNET_134:2 0.3010
4 TAUNET_134:2 TAUNET_134:3 0.2164
5 TAUNET_134:3 TAUNET_134:4 0.4372
6 TAUNET_134:4 TAUGATE_134:A 0.1158
*END

*D_NET TAUNET_284 1.1191
*CONN
*I inst_130:ZN O
*I TAUGATE_284:A I
*CAP
1 inst_130:ZN 0.3810
2 TAUNET_284:1 0.1662
3 TAUNET_284:2 0.3178
4 TAUGATE_284:A 0.2541
*RES
2 inst_130:ZN TAUNET_284:1 0.2497
3 TAUNET_284:1 TAUNET_284:2 0.4625
4 TAUNET_284:2 TAUGATE_284:A 0.2343
*END

*D_NET n17gat 1.8620
*CONN
*I TAUGATE_240:Z O
*I inst_99:A I
*I inst_61:A2 I
*CAP
1 TAUGATE_240:Z 0.3461
2 n17gat:1 0.4109
3 n17gat:2 0.0945
4 n17gat:3 0.2326
5 inst_99:A 0.0121
6 n17gat:4 0.4527
7 inst_61:A2 0.3131
*RES
2 TAUGATE_240:Z n17gat:1 0.2674
3 n17gat:1 n17gat:2 0.2072
4 n17gat:2 n17gat:3 0.0414
5 n17gat:3 inst_99:A 0.2455
6 n17gat:1 n17gat:4 0.4392
7 n17gat:4 inst_61:A2 0.4048
*END

*D_NET TAUNET_267 1.7566
*CONN
*I inst_65:ZN O
*I TAUGATE_267:A I
*CAP
1 inst_65:ZN 0.3283
2 TAUNET_267:1 0.4199
3 TAUNET_267:2 0.3736
4 TAUNET_267:3 0.3306
5 TAUGATE_267:A 0.3042
*RES
2 inst_65:ZN TAUNET_267:1 0.1317
3 TAUNET_267:1 TAUNET_267:2 0.1481
4 TAUNET_267:2 TAUNET_267:3 0.2485
5 TAUNET_267:3 TAUGATE_267:A 0.2201
*END

*D_NET TAUNET_34 0.7087
*CONN
*I TAUGATE_221:Z O
*I TAUGATE_34:A I
*CAP
1 TAUGATE_221:Z 0.3013
2 TAUNET_34:1 0.0262
3 TAUGATE_34:A 0.3812
*RES
2 TAUGATE_221:Z TAUNET_34:1 0.0656
3 TAUNET_34:1 TAUGATE_34:A 0.1550
*END

*D_NET TAUNET_19 1.3180
*CONN
*I TAUGATE_170:Z O
*I TAUGATE_19:A I
*CAP
1 TAUGATE_170:Z 0.1418
2 TAUNET_19:1 0.3805
3 TAUNET_19:2 0.2523
4 TAUNET_19:3 0.0497
5 TAUGATE_19:A 0.4938
*RES
2 TAUGATE_170:Z TAUNET_19:1 0.3913
3 TAUNET_19:1 TAUNET_19:2 0.2131
4 TAUNET_19:2 TAUNET_19:3 0.3201
5 TAUNET_19:3 TAUGATE_19:A 0.0320
*END

*D_NET TAUNET_236 2.1105
*CONN
*I TAUGATE_50:Z O
*I TAUGATE_236:A I
*CAP
1 TAUGATE_50:Z 0.3378
2 TAUNET_236:1 0.2454
3 TAUNET_236:2 0.4527
4 TAUNET_236:3 0.2663
5 TAUNET_236:4 0.3641
6 TAUNET_236:5 0.1740
7 TAUGATE_236:A 0.2701
*RES
2 TAUGATE_50:Z TAUNET_236:1 0.3351
3 TAUNET_236:1 TAUNET_236:2 0.4105
4 TAUNET_236:2 TAUNET_236:3 0.3004
5 TAUNET_236:3 TAUNET_236:4 0.3665
6 TAUNET_236:4 TAUNET_236:5 0.1341
7 TAUNET_236:5 TAUGATE_236:A 0.0859
*END

*D_NET net_87 0.5333
*CONN
*I TAUGATE_132:Z O
*I inst_53:A1 I
*CAP
1 TAUGATE_132:Z 0.3812
2 net_87:1 0.1227
3 inst_53:A1 0.0294
*RES
2 TAUGATE_132:Z net_87:1 0.0059
3 net_87:1 inst_53:A1 0.3552
*END

*D_NET TAUNET_264 2.1906
*CONN
*P n50gat I
*I TAUGATE_264:A I
*CAP
1 n50gat 0.1840
2 TAUNET_264:1 0.3573
3 TAUNET_264:2 0.4559
4 TAUNET_264:3 0.3575
5 TAUNET_264:4 0.1715
6 TAUNET_264:5 0.3050
7 TAUGATE_264:A 0.3594
*RES
2 n50gat TAUNET_264:1 0.4902
3 TAUNET_264:1 TAUNET_264:2 0.4716
4 TAUNET_264:2 TAUNET_264:3 0.2112
5 TAUNET_264:3 TAUNET_264:4 0.1762
6 TAUNET_264:4 TAUNET_264:5 0.1166
7 TAUNET_264:5 TAUGATE_264:A 0.1660
*END

*D_NET net_0 1.7572
*CONN
*I TAUGATE_255:Z O
*I inst_36:A1 I
*CAP
1 TAUGATE_255:Z 0.2908
2 net_0:1 0.3308
3 net_0:2 0.4080
4 net_0:3 0.4669
5 net_0:4 0.1932
6 inst_36:A1 0.0675
*RES
2 TAUGATE_255:Z net_0:1 0.0053
3 net_0:1 net_0:2 0.1459
4 net_0:2 net_0:3 0.0437
5 net_0:3 net_0:4 0.4598
6 net_0:4 inst_36:A1 0.3838
*END

*D_NET TAUNET_44 2.5348
*CONN
*I TAUGATE_157:Z O
*I TAUGATE_44:A I
*CAP
1 TAUGATE_157:Z 0.3263
2 TAUNET_44:1 0.4683
3 TAUNET_44:2 0.1543
4 TAUNET_44:3 0.4873
5 TAUNET_44:4 0.1669
6 TAUNET_44:5 0.4800
7 TAUGATE_44:A 0.4518
*RES
2 TAUGATE_157:Z TAUNET_44:1 0.0570
3 TAUNET_44:1 TAUNET_44:2 0.4909
4 TAUNET_44:2 TAUNET_44:3 0.0572
5 TAUNET_44:3 TAUNET_44:4 0.5008
6 TAUNET_44:4 TAUNET_44:5 0.1013
7 TAUNET_44:5 TAUGATE_44:A 0.2457
*END

*D_NET TAUNET_207 2.1229
*CONN
*I inst_54:ZN O
*I TAUGATE_207:A I
*CAP
1 inst_54:ZN 0.2594
2 TAUNET_207:1 0.4074
3 TAUNET_207:2 0.4309
4 TAUNET_207:3 0.4474
5 TAUNET_207:4 0.2931
6 TAUGATE_207:A 0.2848
*RES
2 inst_54:ZN TAUNET_207:1 0.2246
3 TAUNET_207:1 TAUNET_207:2 0.3320
4 TAUNET_207:2 TAUNET_207:3 0.3870
5 TAUNET_207:3 TAUNET_207:4 0.3663
6 TAUNET_207:4 TAUGATE_207:A 0.1512
*END

*D_NET TAUNET_185 2.3961
*CONN
*I inst_129:ZN O
*I TAUGATE_185:A I
*CAP
1 inst_129:ZN 0.4493
2 TAUNET_185:1 0.2866
3 TAUNET_185:2 0.1873
4 TAUNET_185:3 0.1599
5 TAUNET_185:4 0.3589
6 TAUNET_185:5 0.4697
7 TAUGATE_185:A 0.4844
*RES
2 inst_129:ZN TAUNET_185:1 0.0401
3 TAUNET_185:1 TAUNET_185:2 0.2861
4 TAUNET_185:2 TAUNET_185:3 0.1883
5 TAUNET_185:3 TAUNET_185:4 0.3075
6 TAUNET_185:4 TAUNET_185:5 0.0604
7 TAUNET_185:5 TAUGATE_185:A 0.3908
*END

*D_NET net_35 1.0274
*CONN
*I TAUGATE_147:Z O
*I inst_62:A3 I
*CAP
1 TAUGATE_147:Z 0.4162
2 net_35:1 0.0491
3 net_35:2 0.3511
4 inst_62:A3 0.2111
*RES
2 TAUGATE_147:Z net_35:1 0.3010
3 net_35:1 net_35:2 0.1515
4 net_35:2 inst_62:A3 0.0492
*END

*D_NET net_16 1.1227
*CONN
*I TAUGATE_90:Z O
*I inst_48:A2 I
*CAP
1 TAUGATE_90:Z 0.0711
2 net_16:1 0.0021
3 net_16:2 0.2080
4 net_16:3 0.3529
5 inst_48:A2 0.4886
*RES
2 TAUGATE_90:Z net_16:1 0.3648
3 net_16:1 net_16:2 0.4404
4 net_16:2 net_16:3 0.3187
5 net_16:3 inst_48:A2 0.4272
*END

*D_NET TAUNET_102 1.4415
*CONN
*P n95gat I
*I TAUGATE_102:A I
*CAP
1 n95gat 0.4026
2 TAUNET_102:1 0.1803
3 TAUNET_102:2 0.0882
4 TAUNET_102:3 0.2924
5 TAUGATE_102:A 0.4780
*RES
2 n95gat TAUNET_102:1 0.3510
3 TAUNET_102:1 TAUNET_102:2 0.1182
4 TAUNET_102:2 TAUNET_102:3 0.2614
5 TAUNET_102:3 TAUGATE_102:A 0.1530
*END

*D_NET TAUNET_56 1.0392
*CONN
*I TAUGATE_64:Z O
*I TAUGATE_56:A I
*CAP
1 TAUGATE_64:Z 0.4484
2 TAUNET_56:1 0.1986
3 TAUGATE_56:A 0.3922
*RES
2 TAUGATE_64:Z TAUNET_56:1 0.3950
3 TAUNET_56:1 TAUGATE_56:A 0.2666
*END

*D_NET TAUNET_110 2.0823
*CONN
*I inst_74:ZN O
*I TAUGATE_110:A I
*CAP
1 inst_74:ZN 0.4671
2 TAUNET_110:1 0.3936
3 TAUNET_110:2 0.4880
4 TAUNET_110:3 0.4169
5 TAUGATE_110:A 0.3167
*RES
2 inst_74:ZN TAUNET_110:1 0.3376
3 TAUNET_110:1 TAUNET_110:2 0.1073
4 TAUNET_110:2 TAUNET_110:3 0.3579
5 TAUNET_110:3 TAUGATE_110:A 0.1300
*END

*D_NET TAUNET_41 0.8732
*CONN
*I TAUGATE_253:Z O
*I TAUGATE_41:A I
*CAP
1 TAUGATE_253:Z 0.2362
2 TAUNET_41:1 0.1996
3 TAUNET_41:2 0.3123
4 TAUGATE_41:A 0.1251
*RES
2 TAUGATE_253:Z TAUNET_41:1 0.0048
3 TAUNET_41:1 TAUNET_41:2 0.3126
4 TAUNET_41:2 TAUGATE_41:A 0.0195
*END

*D_NET TAUNET_164 1.8169
*CONN
*I inst_44:ZN O
*I TAUGATE_164:A I
*CAP
1 inst_44:ZN 0.3700
2 TAUNET_164:1 0.3466
3 TAUNET_164:2 0.4948
4 TAUNET_164:3 0.4038
5 TAUNET_164:4 0.1954
6 TAUGATE_164:A 0.0063
*RES
2 inst_44:ZN TAUNET_164:1 0.4904
3 TAUNET_164:1 TAUNET_164:2 0.0915
4 TAUNET_164:2 TAUNET_164:3 0.4619
5 TAUNET_164:3 TAUNET_164:4 0.1065
6 TAUNET_164:4 TAUGATE_164:A 0.1990
*END

*D_NET net_42 2.1780
*CONN
*I TAUGATE_174:Z O
*I inst_47:A3 I
*I inst_129:A3 I
*CAP
1 TAUGATE_174:Z 0.0690
2 net_42:1 0.2934
3 net_42:2 0.0661
4 net_42:3 0.0281
5 inst_129:A3 0.1011
6 net_42:4 0.4045
7 net_42:5 0.4267
8 net_42:6 0.4596
9 inst_47:A3 0.3295
*RES
2 TAUGATE_174:Z net_42:1 0.2539
3 net_42:1 net_42:2 0.0765
4 net_42:2 net_42:3 0.1980
5 net_42:3 inst_129:A3 0.3226
6 net_42:1 net_42:4 0.4724
7 net_42:4 net_42:5 0.4631
8 net_42:5 net_42:6 0.0407
9 net_42:6 inst_47:A3 0.4130
*END

*D_NET net_120 1.7936
*CONN
*I TAUGATE_204:Z O
*I inst_22:A1 I
*I inst_34:A2 I
*CAP
1 TAUGATE_204:Z 0.0714
2 net_120:1 0.2588
3 net_120:2 0.0339
4 net_120:3 0.0519
5 inst_34:A2 0.4874
6 net_120:4 0.1540
7 net_120:5 0.0325
8 net_120:6 0.0924
9 net_120:7 0.1850
10 net_120:8 0.1516
11 inst_22:A1 0.2746
*RES
2 TAUGATE_204:Z net_120:1 0.0374
3 net_120:1 net_120:2 0.2489
4 net_120:2 net_120:3 0.2584
5 net_120:3 inst_34:A2 0.0346
6 net_120:3 net_120:4 0.4228
7 net_120:4 net_120:5 0.1417
8 net_120:5 net_120:6 0.3754
9 net_120:6 net_120:7 0.2016
10 net_120:7 net_120:8 0.0068
11 net_120:8 inst_22:A1 0.2001
*END

*D_NET TAUNET_142 1.0932
*CONN
*I TAUGATE_7:Z O
*I TAUGATE_142:A I
*CAP
1 TAUGATE_7:Z 0.4926
2 TAUNET_142:1 0.3810
3 TAUGATE_142:A 0.2195
*RES
2 TAUGATE_7:Z TAUNET_142:1 0.2042
3 TAUNET_142:1 TAUGATE_142:A 0.2030
*END

*D_NET TAUNET_64 1.1297
*CONN
*I inst_31:ZN O
*I TAUGATE_64:A I
*CAP
1 inst_31:ZN 0.4413
2 TAUNET_64:1 0.4042
3 TAUNET_64:2 0.0451
4 TAUGATE_64:A 0.2391
*RES
2 inst_31:ZN TAUNET_64:1 0.0321
3 TAUNET_64:1 TAUNET_64:2 0.4146
4 TAUNET_64:2 TAUGATE_64:A 0.0857
*END

*D_NET TAUNET_211 1.3928
*CONN
*P n37gat I
*I TAUGATE_211:A I
*CAP
1 n37gat 0.2245
2 TAUNET_211:1 0.0551
3 TAUNET_211:2 0.1877
4 TAUNET_211:3 0.0973
5 TAUNET_211:4 0.4235
6 TAUNET_211:5 0.1903
7 TAUGATE_211:A 0.2143
*RES
2 n37gat TAUNET_211:1 0.0701
3 TAUNET_211:1 TAUNET_211:2 0.2421
4 TAUNET_211:2 TAUNET_211:3 0.4634
5 TAUNET_211:3 TAUNET_211:4 0.2497
6 TAUNET_211:4 TAUNET_211:5 0.2766
7 TAUNET_211:5 TAUGATE_211:A 0.3086
*END

*D_NET n95gat 5.8936
*CONN
*I TAUGATE_102:Z O
*I inst_47:A1 I
*I inst_129:A1 I
*I inst_101:A I
*I inst_54:A2 I
*CAP
1 TAUGATE_102:Z 0.4838
2 n95gat:1 0.3539
3 inst_129:A1 0.3446
4 n95gat:2 0.1374
5 n95gat:3 0.1713
6 n95gat:4 0.2153
7 n95gat:5 0.3119
8 n95gat:6 0.4918
9 inst_47:A1 0.3583
10 n95gat:7 0.4721
11 n95gat:8 0.1185
12 n95gat:9 0.4585
13 inst_101:A 0.3703
14 n95gat:10 0.1640
15 n95gat:11 0.1778
16 n95gat:12 0.3155
17 n95gat:13 0.4909
18 n95gat:14 0.2285
19 inst_54:A2 0.2293
*RES