*SPEF "IEEE 1481-1998"
*DESIGN "changes"
*DATE "Tue Dec 02 18:59:51 2014"
*VENDOR "TAU 2015 Contest"
*PROGRAM "Benchmark Parasitic Generator"
*VERSION "0.0"
*DESIGN_FLOW "NETLIST_TYPE_VERILOG"
*DIVIDER /
*DELIMITER :
*BUS_DELIMITER [ ]
*T_UNIT 1 PS
*C_UNIT 1 FF
*R_UNIT 1 KOHM
*L_UNIT 1 UH

*D_NET n112gat 3.0173
*CONN
*I TAUGATE_7:Z O
*I inst_83:A1 I
*I inst_105:A I
*CAP
1 TAUGATE_7:Z 0.2611
2 n112gat:1 0.4098
3 n112gat:2 0.5009
4 n112gat:3 0.2843
5 inst_83:A1 0.2878
6 n112gat:4 0.4685
7 n112gat:5 0.3070
8 n112gat:6 0.3583
9 inst_105:A 0.1395
*RES
2 TAUGATE_7:Z n112gat:1 0.1659
3 n112gat:1 n112gat:2 0.2742
4 n112gat:2 n112gat:3 0.3494
5 n112gat:3 inst_83:A1 0.1485
6 n112gat:3 n112gat:4 0.0646
7 n112gat:4 n112gat:5 0.0794
8 n112gat:5 n112gat:6 0.2161
9 n112gat:6 inst_105:A 0.1614
*END

*D_NET TAUNET_9 1.8183
*CONN
*I inst_103:ZN O
*I TAUGATE_9:A I
*CAP
1 inst_103:ZN 0.3755
2 TAUNET_9:1 0.4559
3 TAUNET_9:2 0.4050
4 TAUNET_9:3 0.0154
5 TAUNET_9:4 0.1670
6 TAUNET_9:5 0.1555
7 TAUGATE_9:A 0.2440
*RES
2 inst_103:ZN TAUNET_9:1 0.0332
3 TAUNET_9:1 TAUNET_9:2 0.0406
4 TAUNET_9:2 TAUNET_9:3 0.2732
5 TAUNET_9:3 TAUNET_9:4 0.0073
6 TAUNET_9:4 TAUNET_9:5 0.1308
7 TAUNET_9:5 TAUGATE_9:A 0.1374
*END

*D_NET net_85 1.3529
*CONN
*I TAUGATE_6:Z O
*I inst_53:A3 I
*CAP
1 TAUGATE_6:Z 0.3706
2 net_85:1 0.4871
3 inst_53:A3 0.4951
*RES
2 TAUGATE_6:Z net_85:1 0.4125
3 net_85:1 inst_53:A3 0.0565
*END

*D_NET TAUNET_5 1.5997
*CONN
*I inst_128:ZN O
*I TAUGATE_5:A I
*CAP
1 inst_128:ZN 0.0292
2 TAUNET_5:1 0.4507
3 TAUNET_5:2 0.3356
4 TAUNET_5:3 0.3995
5 TAUGATE_5:A 0.3845
*RES
2 inst_128:ZN TAUNET_5:1 0.4708
3 TAUNET_5:1 TAUNET_5:2 0.3056
4 TAUNET_5:2 TAUNET_5:3 0.3464
5 TAUNET_5:3 TAUGATE_5:A 0.0305
*END

*D_NET TAUNET_8 1.3804
*CONN
*P n50gat I
*I TAUGATE_8:A I
*CAP
1 n50gat 0.4020
2 TAUNET_8:1 0.2665
3 TAUNET_8:2 0.4354
4 TAUNET_8:3 0.1977
5 TAUGATE_8:A 0.0788
*RES
2 n50gat TAUNET_8:1 0.3276
3 TAUNET_8:1 TAUNET_8:2 0.3833
4 TAUNET_8:2 TAUNET_8:3 0.3292
5 TAUNET_8:3 TAUGATE_8:A 0.0716
*END

*D_NET net_54 2.1306
*CONN
*I TAUGATE_5:Z O
*I inst_42:A2 I
*I inst_11:A I
*CAP
1 TAUGATE_5:Z 0.1922
2 net_54:1 0.1322
3 net_54:2 0.1905
4 net_54:3 0.4017
5 inst_42:A2 0.4680
6 net_54:4 0.1868
7 net_54:5 0.4889
8 inst_11:A 0.0703
*RES
2 TAUGATE_5:Z net_54:1 0.2976
3 net_54:1 net_54:2 0.2331
4 net_54:2 net_54:3 0.2927
5 net_54:3 inst_42:A2 0.3943
6 net_54:2 net_54:4 0.3298
7 net_54:4 net_54:5 0.4131
8 net_54:5 inst_11:A 0.3310
*END

*D_NET n50gat 3.1400
*CONN
*I TAUGATE_8:Z O
*I inst_72:A1 I
*I inst_39:A2 I
*CAP
1 TAUGATE_8:Z 0.4792
2 n50gat:1 0.0717
3 n50gat:2 0.3990
4 inst_39:A2 0.4035
5 n50gat:3 0.3591
6 n50gat:4 0.2780
7 n50gat:5 0.2022
8 n50gat:6 0.1593
9 n50gat:7 0.4382
10 inst_72:A1 0.3498
*RES
2 TAUGATE_8:Z n50gat:1 0.0219
3 n50gat:1 n50gat:2 0.0830
4 n50gat:2 inst_39:A2 0.4539
5 n50gat:2 n50gat:3 0.4055
6 n50gat:3 n50gat:4 0.4519
7 n50gat:4 n50gat:5 0.4658
8 n50gat:5 n50gat:6 0.3690
9 n50gat:6 n50gat:7 0.4019
10 n50gat:7 inst_72:A1 0.0632
*END

*D_NET TAUNET_6 2.0111
*CONN
*I inst_47:ZN O
*I TAUGATE_6:A I
*CAP
1 inst_47:ZN 0.4700
2 TAUNET_6:1 0.3545
3 TAUNET_6:2 0.1033
4 TAUNET_6:3 0.4316
5 TAUNET_6:4 0.1782
6 TAUGATE_6:A 0.4734
*RES
2 inst_47:ZN TAUNET_6:1 0.0376
3 TAUNET_6:1 TAUNET_6:2 0.0972
4 TAUNET_6:2 TAUNET_6:3 0.3594
5 TAUNET_6:3 TAUNET_6:4 0.0525
6 TAUNET_6:4 TAUGATE_6:A 0.3248
*END

*D_NET net_3 1.7532
*CONN
*I TAUGATE_9:Z O
*I inst_49:A2 I
*CAP
1 TAUGATE_9:Z 0.1267
2 net_3:1 0.2434
3 net_3:2 0.3726
4 net_3:3 0.2980
5 net_3:4 0.2454
6 inst_49:A2 0.4670
*RES
2 TAUGATE_9:Z net_3:1 0.1921
3 net_3:1 net_3:2 0.1376
4 net_3:2 net_3:3 0.4443
5 net_3:3 net_3:4 0.1288
6 net_3:4 inst_49:A2 0.3022
*END

*D_NET TAUNET_7 1.8873
*CONN
*P n112gat I
*I TAUGATE_7:A I
*CAP
1 n112gat 0.0668
2 TAUNET_7:1 0.4131
3 TAUNET_7:2 0.4004
4 TAUNET_7:3 0.4814
5 TAUNET_7:4 0.1341
6 TAUGATE_7:A 0.3915
*RES
2 n112gat TAUNET_7:1 0.0282
3 TAUNET_7:1 TAUNET_7:2 0.3089
4 TAUNET_7:2 TAUNET_7:3 0.0253
5 TAUNET_7:3 TAUNET_7:4 0.3105
6 TAUNET_7:4 TAUGATE_7:A 0.1881
*END

