*SPEF "IEEE 1481-1998"
*DESIGN "changes"
*DATE "Tue Dec 02 18:59:59 2014"
*VENDOR "TAU 2015 Contest"
*PROGRAM "Benchmark Parasitic Generator"
*VERSION "0.0"
*DESIGN_FLOW "NETLIST_TYPE_VERILOG"
*DIVIDER /
*DELIMITER :
*BUS_DELIMITER [ ]
*T_UNIT 1 PS
*C_UNIT 1 FF
*R_UNIT 1 KOHM
*L_UNIT 1 UH

*D_NET net_47 3.0173
*CONN
*I inst_7:ZN O
*I inst_29:A3 I
*I inst_32:A3 I
*CAP
1 inst_7:ZN 0.2611
2 net_47:1 0.4098
3 net_47:2 0.5009
4 net_47:3 0.2843
5 inst_29:A3 0.2878
6 net_47:4 0.4685
7 net_47:5 0.3070
8 net_47:6 0.3583
9 inst_32:A3 0.1395
*RES
2 inst_7:ZN net_47:1 0.1659
3 net_47:1 net_47:2 0.2742
4 net_47:2 net_47:3 0.3494
5 net_47:3 inst_29:A3 0.1485
6 net_47:3 net_47:4 0.0646
7 net_47:4 net_47:5 0.0794
8 net_47:5 net_47:6 0.2161
9 net_47:6 inst_32:A3 0.1614
*END

*D_NET net_61 1.8183
*CONN
*I inst_76:ZN O
*I inst_27:A2 I
*CAP
1 inst_76:ZN 0.3755
2 net_61:1 0.4559
3 net_61:2 0.4050
4 net_61:3 0.0154
5 net_61:4 0.1670
6 net_61:5 0.1555
7 inst_27:A2 0.2440
*RES
2 inst_76:ZN net_61:1 0.0332
3 net_61:1 net_61:2 0.0406
4 net_61:2 net_61:3 0.2732
5 net_61:3 net_61:4 0.0073
6 net_61:4 net_61:5 0.1308
7 net_61:5 inst_27:A2 0.1374
*END

*D_NET net_54 3.5954
*CONN
*I inst_128:ZN O
*I inst_42:A2 I
*I inst_11:A I
*CAP
1 inst_128:ZN 0.3706
2 net_54:1 0.4871
3 inst_11:A 0.4951
4 net_54:2 0.3356
5 net_54:3 0.3995
6 net_54:4 0.3845
7 net_54:5 0.4708
8 net_54:6 0.3056
9 inst_42:A2 0.3464
*RES
2 inst_128:ZN net_54:1 0.4125
3 net_54:1 inst_11:A 0.0565
4 net_54:1 net_54:2 0.0305
5 net_54:2 net_54:3 0.2383
6 net_54:3 net_54:4 0.4020
7 net_54:4 net_54:5 0.2529
8 net_54:5 net_54:6 0.2665
9 net_54:6 inst_42:A2 0.4354
*END

*D_NET net_105 1.2788
*CONN
*I inst_62:ZN O
*I inst_95:A2 I
*CAP
1 inst_62:ZN 0.0788
2 net_105:1 0.3833
3 net_105:2 0.3292
4 net_105:3 0.0716
5 net_105:4 0.2236
6 inst_95:A2 0.1922
*RES
2 inst_62:ZN net_105:1 0.2805
3 net_105:1 net_105:2 0.1322
4 net_105:2 net_105:3 0.1905
5 net_105:3 net_105:4 0.4017
6 net_105:4 inst_95:A2 0.4680
*END

*D_NET net_62 2.3615
*CONN
*I inst_132:ZN O
*I inst_27:A3 I
*I inst_12:A I
*CAP
1 inst_132:ZN 0.2331
2 net_62:1 0.3943
3 net_62:2 0.2211
4 net_62:3 0.1955
5 inst_12:A 0.1868
6 net_62:4 0.4792
7 net_62:5 0.1808
8 net_62:6 0.0717
9 inst_27:A3 0.3990
*RES
2 inst_132:ZN net_62:1 0.4889
3 net_62:1 net_62:2 0.0703
4 net_62:2 net_62:3 0.3298
5 net_62:3 inst_12:A 0.4131
6 net_62:3 net_62:4 0.4035
7 net_62:4 net_62:5 0.0219
8 net_62:5 net_62:6 0.0830
9 net_62:6 inst_27:A3 0.4539
*END

*D_NET net_6 4.0262
*CONN
*P n47gat I
*I inst_131:A2 I
*I inst_80:A1 I
*CAP
1 n47gat 0.3196
2 net_6:1 0.3591
3 net_6:2 0.2780
4 net_6:3 0.2022
5 net_6:4 0.1593
6 net_6:5 0.4382
7 inst_131:A2 0.3498
8 net_6:6 0.3789
9 net_6:7 0.3545
10 net_6:8 0.1033
11 net_6:9 0.4316
12 net_6:10 0.1782
13 inst_80:A1 0.4734
*RES
2 n47gat net_6:1 0.4055
3 net_6:1 net_6:2 0.4519
4 net_6:2 net_6:3 0.4658
5 net_6:3 net_6:4 0.3690
6 net_6:4 net_6:5 0.4019
7 net_6:5 inst_131:A2 0.0632
8 net_6:3 net_6:6 0.0376
9 net_6:6 net_6:7 0.0972
10 net_6:7 net_6:8 0.3594
11 net_6:8 net_6:9 0.0525
12 net_6:9 net_6:10 0.3248
13 net_6:10 inst_80:A1 0.2597
*END

*D_NET net_98 1.7670
*CONN
*I inst_89:ZN O
*I inst_55:A1 I
*CAP
1 inst_89:ZN 0.3840
2 net_98:1 0.3726
3 net_98:2 0.2980
4 net_98:3 0.2454
5 inst_55:A1 0.4670
*RES
2 inst_89:ZN net_98:1 0.1921
3 net_98:1 net_98:2 0.1376
4 net_98:2 net_98:3 0.4443
5 net_98:3 inst_55:A1 0.1288
*END

*D_NET net_119 0.9235
*CONN
*I inst_33:ZN O
*I inst_18:A2 I
*CAP
1 inst_33:ZN 0.1405
2 net_119:1 0.3699
3 inst_18:A2 0.4131
*RES
2 inst_33:ZN net_119:1 0.4004
3 net_119:1 inst_18:A2 0.4814
*END

*D_NET net_23 1.6808
*CONN
*I inst_39:ZN O
*I inst_26:A2 I
*I inst_3:A I
*CAP
1 inst_39:ZN 0.3915
2 net_23:1 0.3089
3 inst_26:A2 0.0253
4 net_23:2 0.3147
5 net_23:3 0.2761
6 inst_3:A 0.3643
*RES
2 inst_39:ZN net_23:1 0.3105
3 net_23:1 inst_26:A2 0.1881
4 net_23:1 net_23:2 0.2288
5 net_23:2 net_23:3 0.0666
6 net_23:3 inst_3:A 0.3854
*END

*D_NET net_12 1.7905
*CONN
*P n60gat I
*I inst_128:A2 I
*I inst_79:A1 I
*CAP
1 n60gat 0.3774
2 net_12:1 0.1525
3 net_12:2 0.0518
4 net_12:3 0.2548
5 inst_79:A1 0.2154
6 net_12:4 0.2239
7 net_12:5 0.0917
8 inst_128:A2 0.4230
*RES
2 n60gat net_12:1 0.4921
3 net_12:1 net_12:2 0.1648
4 net_12:2 net_12:3 0.1855
5 net_12:3 inst_79:A1 0.0112
6 net_12:3 net_12:4 0.1494
7 net_12:4 net_12:5 0.3290
8 net_12:5 inst_128:A2 0.1620
*END

*D_NET n102gat 2.2018
*CONN
*P n102gat I
*I inst_38:A2 I
*I inst_71:A1 I
*CAP
1 n102gat 0.2883
2 n102gat:1 0.4381
3 n102gat:2 0.3484
4 inst_38:A2 0.0801
5 n102gat:3 0.4787
6 n102gat:4 0.1076
7 inst_71:A1 0.4606
*RES
2 n102gat n102gat:1 0.1392
3 n102gat:1 n102gat:2 0.1891
4 n102gat:2 inst_38:A2 0.0464
5 n102gat:1 n102gat:3 0.3388
6 n102gat:3 n102gat:4 0.4657
7 n102gat:4 inst_71:A1 0.3595
*END

*D_NET net_117 0.4962
*CONN
*I inst_45:ZN O
*I inst_23:A1 I
*CAP
1 inst_45:ZN 0.0832
2 net_117:1 0.3736
3 inst_23:A1 0.0395
*RES
2 inst_45:ZN net_117:1 0.3644
3 net_117:1 inst_23:A1 0.0829
*END

*D_NET net_74 2.2654
*CONN
*I inst_85:ZN O
*I inst_58:A4 I
*CAP
1 inst_85:ZN 0.4694
2 net_74:1 0.3882
3 net_74:2 0.4950
4 net_74:3 0.0413
5 net_74:4 0.4651
6 inst_58:A4 0.4065
*RES
2 inst_85:ZN net_74:1 0.3164
3 net_74:1 net_74:2 0.3513
4 net_74:2 net_74:3 0.1165
5 net_74:3 net_74:4 0.0986
6 net_74:4 inst_58:A4 0.2243
*END

*D_NET net_53 2.4649
*CONN
*I inst_32:ZN O
*I inst_13:A I
*I inst_27:A4 I
*CAP
1 inst_32:ZN 0.4269
2 net_53:1 0.2195
3 net_53:2 0.1533
4 net_53:3 0.4091
5 inst_13:A 0.2613
6 net_53:4 0.1210
7 net_53:5 0.1733
8 net_53:6 0.1014
9 net_53:7 0.0283
10 net_53:8 0.2763
11 inst_27:A4 0.2945
*RES
2 inst_32:ZN net_53:1 0.3587
3 net_53:1 net_53:2 0.1869
4 net_53:2 net_53:3 0.4974
5 net_53:3 inst_13:A 0.3047
6 net_53:1 net_53:4 0.3177
7 net_53:4 net_53:5 0.2101
8 net_53:5 net_53:6 0.3390
9 net_53:6 net_53:7 0.2046
10 net_53:7 net_53:8 0.3404
11 net_53:8 inst_27:A4 0.1317
*END

*D_NET net_93 1.2103
*CONN
*I inst_64:ZN O
*I inst_31:A2 I
*CAP
1 inst_64:ZN 0.0856
2 net_93:1 0.2821
3 net_93:2 0.3900
4 net_93:3 0.0557
5 net_93:4 0.1253
6 inst_31:A2 0.2716
*RES
2 inst_64:ZN net_93:1 0.3735
3 net_93:1 net_93:2 0.1079
4 net_93:2 net_93:3 0.3323
5 net_93:3 net_93:4 0.2907
6 net_93:4 inst_31:A2 0.0362
*END

*D_NET n30gat 3.6866
*CONN
*P n30gat I
*I inst_52:A1 I
*I inst_60:A2 I
*I inst_132:A1 I
*I inst_66:A1 I
*CAP
1 n30gat 0.4101
2 n30gat:1 0.2135
3 n30gat:2 0.0419
4 n30gat:3 0.2773
5 inst_66:A1 0.0903
6 n30gat:4 0.3972
7 n30gat:5 0.4228
8 n30gat:6 0.2443
9 n30gat:7 0.2458
10 inst_60:A2 0.3734
11 n30gat:8 0.4436
12 inst_132:A1 0.1981
13 n30gat:9 0.0423
14 inst_52:A1 0.2861
*RES
2 n30gat n30gat:1 0.0485
3 n30gat:1 n30gat:2 0.4602
4 n30gat:2 n30gat:3 0.4262
5 n30gat:3 inst_66:A1 0.2009
6 n30gat:3 n30gat:4 0.1567
7 n30gat:4 n30gat:5 0.1247
8 n30gat:5 n30gat:6 0.2439
9 n30gat:6 n30gat:7 0.2588
10 n30gat:7 inst_60:A2 0.4474
11 n30gat:6 n30gat:8 0.3275
12 n30gat:8 inst_132:A1 0.0169
13 n30gat:4 n30gat:9 0.4278
14 n30gat:9 inst_52:A1 0.3875
*END

*D_NET n37gat 2.5423
*CONN
*P n37gat I
*I inst_68:A1 I
*I inst_41:A2 I
*CAP
1 n37gat 0.3740
2 n37gat:1 0.0209
3 n37gat:2 0.4380
4 inst_41:A2 0.4130
5 n37gat:3 0.4464
6 n37gat:4 0.2438
7 n37gat:5 0.2969
8 inst_68:A1 0.3091
*RES
2 n37gat n37gat:1 0.4990
3 n37gat:1 n37gat:2 0.2134
4 n37gat:2 inst_41:A2 0.1115
5 n37gat:2 n37gat:3 0.5006
6 n37gat:3 n37gat:4 0.2264
7 n37gat:4 n37gat:5 0.3973
8 n37gat:5 inst_68:A1 0.2044
*END

*D_NET n432gat 1.5866
*CONN
*I inst_18:ZN O
*P n432gat O
*CAP
1 inst_18:ZN 0.3886
2 n432gat:1 0.2468
3 n432gat:2 0.4002
4 n432gat:3 0.3652
5 n432gat 0.1857
*RES
2 inst_18:ZN n432gat:1 0.0562
3 n432gat:1 n432gat:2 0.0882
4 n432gat:2 n432gat:3 0.4386
5 n432gat:3 n432gat 0.2715
*END

*D_NET net_14 2.2528
*CONN
*P n73gat I
*I inst_127:A2 I
*I inst_85:A1 I
*CAP
1 n73gat 0.4145
2 net_14:1 0.1130
3 net_14:2 0.1026
4 inst_127:A2 0.1939
5 net_14:3 0.1138
6 net_14:4 0.4033
7 net_14:5 0.3663
8 net_14:6 0.2540
9 net_14:7 0.0526
10 inst_85:A1 0.2388
*RES
2 n73gat net_14:1 0.1095
3 net_14:1 net_14:2 0.0212
4 net_14:2 inst_127:A2 0.1417
5 net_14:1 net_14:3 0.1787
6 net_14:3 net_14:4 0.3603
7 net_14:4 net_14:5 0.0603
8 net_14:5 net_14:6 0.0863
9 net_14:6 net_14:7 0.3102
10 net_14:7 inst_85:A1 0.1239
*END

*D_NET net_26 3.5407
*CONN
*I inst_24:ZN O
*I inst_46:A3 I
*I inst_7:A I
*CAP
1 inst_24:ZN 0.0055
2 net_26:1 0.2412
3 net_26:2 0.3995
4 net_26:3 0.4441
5 net_26:4 0.4218
6 net_26:5 0.0848
7 inst_46:A3 0.0266
8 net_26:6 0.3124
9 net_26:7 0.3685
10 net_26:8 0.4317
11 net_26:9 0.1801
12 net_26:10 0.2826
13 inst_7:A 0.3420
*RES
2 inst_24:ZN net_26:1 0.0274
3 net_26:1 net_26:2 0.4218
4 net_26:2 net_26:3 0.2061
5 net_26:3 net_26:4 0.2110
6 net_26:4 net_26:5 0.4583
7 net_26:5 inst_46:A3 0.3985
8 net_26:1 net_26:6 0.0965
9 net_26:6 net_26:7 0.2555
10 net_26:7 net_26:8 0.1304
11 net_26:8 net_26:9 0.3675
12 net_26:9 net_26:10 0.4634
13 net_26:10 inst_7:A 0.2869
*END

*D_NET net_76 0.5511
*CONN
*I inst_10:ZN O
*I inst_50:A4 I
*CAP
1 inst_10:ZN 0.1182
2 net_76:1 0.0608
3 inst_50:A4 0.3721
*RES
2 inst_10:ZN net_76:1 0.4648
3 net_76:1 inst_50:A4 0.2376
*END

*D_NET net_32 0.8353
*CONN
*I inst_68:ZN O
*I inst_59:A3 I
*CAP
1 inst_68:ZN 0.3081
2 net_32:1 0.0264
3 net_32:2 0.2502
4 inst_59:A3 0.2506
*RES
2 inst_68:ZN net_32:1 0.4486
3 net_32:1 net_32:2 0.0641
4 net_32:2 inst_59:A3 0.0138
*END

*D_NET net_101 0.7959
*CONN
*I inst_92:ZN O
*I inst_59:A1 I
*CAP
1 inst_92:ZN 0.0204
2 net_101:1 0.1001
3 net_101:2 0.2747
4 net_101:3 0.1704
5 inst_59:A1 0.2303
*RES
2 inst_92:ZN net_101:1 0.0121
3 net_101:1 net_101:2 0.0620
4 net_101:2 net_101:3 0.0267
5 net_101:3 inst_59:A1 0.1278
*END

*D_NET net_111 2.6173
*CONN
*I inst_54:ZN O
*I inst_33:A2 I
*I inst_95:A1 I
*CAP
1 inst_54:ZN 0.3621
2 net_111:1 0.3490
3 net_111:2 0.4751
4 inst_33:A2 0.3195
5 net_111:3 0.1411
6 net_111:4 0.2452
7 net_111:5 0.2723
8 net_111:6 0.2079
9 inst_95:A1 0.2449
*RES
2 inst_54:ZN net_111:1 0.4748
3 net_111:1 net_111:2 0.2505
4 net_111:2 inst_33:A2 0.2036
5 net_111:1 net_111:3 0.0406
6 net_111:3 net_111:4 0.0917
7 net_111:4 net_111:5 0.0078
8 net_111:5 net_111:6 0.0227
9 net_111:6 inst_95:A1 0.0264
*END

*D_NET net_40 2.6384
*CONN
*I inst_0:ZN O
*I inst_127:A3 I
*I inst_49:A3 I
*CAP
1 inst_0:ZN 0.1906
2 net_40:1 0.0937
3 net_40:2 0.2944
4 inst_127:A3 0.3987
5 net_40:3 0.1157
6 net_40:4 0.1901
7 net_40:5 0.2138
8 net_40:6 0.5008
9 net_40:7 0.2979
10 inst_49:A3 0.3428
*RES
2 inst_0:ZN net_40:1 0.0209
3 net_40:1 net_40:2 0.1182
4 net_40:2 inst_127:A3 0.1067
5 net_40:2 net_40:3 0.2325
6 net_40:3 net_40:4 0.2733
7 net_40:4 net_40:5 0.1266
8 net_40:5 net_40:6 0.3814
9 net_40:6 net_40:7 0.1363
10 net_40:7 inst_49:A3 0.3277
*END

*D_NET net_90 1.7680
*CONN
*I inst_52:ZN O
*I inst_64:A1 I
*CAP
1 inst_52:ZN 0.4503
2 net_90:1 0.1603
3 net_90:2 0.4423
4 net_90:3 0.1159
5 net_90:4 0.4527
6 inst_64:A1 0.1465
*RES
2 inst_52:ZN net_90:1 0.1463
3 net_90:1 net_90:2 0.4621
4 net_90:2 net_90:3 0.4065
5 net_90:3 net_90:4 0.0227
6 net_90:4 inst_64:A1 0.2236
*END

*D_NET net_100 1.0395
*CONN
*I inst_91:ZN O
*I inst_57:A1 I
*CAP
1 inst_91:ZN 0.0715
2 net_100:1 0.1861
3 net_100:2 0.4367
4 inst_57:A1 0.3452
*RES
2 inst_91:ZN net_100:1 0.0313
3 net_100:1 net_100:2 0.1217
4 net_100:2 inst_57:A1 0.0111
*END

*D_NET n8gat 2.1738
*CONN
*P n8gat I
*I inst_78:A1 I
*I inst_32:A2 I
*CAP
1 n8gat 0.0613
2 n8gat:1 0.4407
3 n8gat:2 0.4978
4 inst_78:A1 0.2563
5 n8gat:3 0.1679
6 n8gat:4 0.2053
7 n8gat:5 0.2140
8 inst_32:A2 0.3306
*RES
2 n8gat n8gat:1 0.2595
3 n8gat:1 n8gat:2 0.2603
4 n8gat:2 inst_78:A1 0.2874
5 n8gat:2 n8gat:3 0.1569
6 n8gat:3 n8gat:4 0.2580
7 n8gat:4 n8gat:5 0.2138
8 n8gat:5 inst_32:A2 0.4796
*END

*D_NET net_85 2.0121
*CONN
*I inst_47:ZN O
*I inst_53:A3 I
*CAP
1 inst_47:ZN 0.4946
2 net_85:1 0.4692
3 net_85:2 0.4766
4 net_85:3 0.0589
5 net_85:4 0.0962
6 net_85:5 0.2415
7 inst_53:A3 0.1750
*RES
2 inst_47:ZN net_85:1 0.4103
3 net_85:1 net_85:2 0.0845
4 net_85:2 net_85:3 0.1888
5 net_85:3 net_85:4 0.1436
6 net_85:4 net_85:5 0.1762
7 net_85:5 inst_53:A3 0.4748
*END

*D_NET net_69 1.1069
*CONN
*I inst_80:ZN O
*I inst_59:A4 I
*CAP
1 inst_80:ZN 0.0407
2 net_69:1 0.0491
3 net_69:2 0.4137
4 net_69:3 0.3046
5 inst_59:A4 0.2987
*RES
2 inst_80:ZN net_69:1 0.2640
3 net_69:1 net_69:2 0.1831
4 net_69:2 net_69:3 0.4110
5 net_69:3 inst_59:A4 0.0191
*END

*D_NET net_124 4.4412
*CONN
*I inst_98:ZN O
*I inst_35:A2 I
*I inst_22:A2 I
*I inst_23:A2 I
*CAP
1 inst_98:ZN 0.4300
2 net_124:1 0.0787
3 net_124:2 0.2007
4 net_124:3 0.2971
5 net_124:4 0.4025
6 inst_23:A2 0.5010
7 net_124:5 0.3761
8 net_124:6 0.0616
9 net_124:7 0.4298
10 inst_22:A2 0.2857
11 net_124:8 0.1284
12 net_124:9 0.0036
13 net_124:10 0.1731
14 net_124:11 0.2737
15 net_124:12 0.3095
16 inst_35:A2 0.4895
*RES
2 inst_98:ZN net_124:1 0.3538
3 net_124:1 net_124:2 0.4649
4 net_124:2 net_124:3 0.0482
5 net_124:3 net_124:4 0.1062
6 net_124:4 inst_23:A2 0.2963
7 net_124:2 net_124:5 0.2634
8 net_124:5 net_124:6 0.0470
9 net_124:6 net_124:7 0.0745
10 net_124:7 inst_22:A2 0.1738
11 net_124:7 net_124:8 0.4033
12 net_124:8 net_124:9 0.2734
13 net_124:9 net_124:10 0.3461
14 net_124:10 net_124:11 0.3729
15 net_124:11 net_124:12 0.0418
16 net_124:12 inst_35:A2 0.3671
*END

*D_NET net_83 1.1766
*CONN
*I inst_17:ZN O
*I inst_49:A4 I
*CAP
1 inst_17:ZN 0.1458
2 net_83:1 0.0683
3 net_83:2 0.2135
4 net_83:3 0.4484
5 net_83:4 0.1379
6 net_83:5 0.1139
7 inst_49:A4 0.0489
*RES
2 inst_17:ZN net_83:1 0.0861
3 net_83:1 net_83:2 0.1477
4 net_83:2 net_83:3 0.4806
5 net_83:3 net_83:4 0.3473
6 net_83:4 net_83:5 0.1114
7 net_83:5 inst_49:A4 0.0198
*END

*D_NET net_115 2.0885
*CONN
*I inst_97:ZN O
*I inst_35:A3 I
*I inst_45:A2 I
*CAP
1 inst_97:ZN 0.1100
2 net_115:1 0.3290
3 net_115:2 0.1592
4 net_115:3 0.4236
5 inst_35:A3 0.3328
6 net_115:4 0.4963
7 inst_45:A2 0.2377
*RES
2 inst_97:ZN net_115:1 0.1906
3 net_115:1 net_115:2 0.5003
4 net_115:2 net_115:3 0.4347
5 net_115:3 inst_35:A3 0.3044
6 net_115:1 net_115:4 0.2571
7 net_115:4 inst_45:A2 0.3610
*END

*D_NET n63gat 2.2596
*CONN
*P n63gat I
*I inst_36:A2 I
*I inst_73:A1 I
*CAP
1 n63gat 0.2690
2 n63gat:1 0.3400
3 n63gat:2 0.2352
4 n63gat:3 0.3112
5 n63gat:4 0.1345
6 inst_36:A2 0.4134
7 n63gat:5 0.2112
8 n63gat:6 0.2343
9 inst_73:A1 0.1106
*RES
2 n63gat n63gat:1 0.0741
3 n63gat:1 n63gat:2 0.4290
4 n63gat:2 n63gat:3 0.4891
5 n63gat:3 n63gat:4 0.0621
6 n63gat:4 inst_36:A2 0.2122
7 n63gat:2 n63gat:5 0.0283
8 n63gat:5 n63gat:6 0.2644
9 n63gat:6 inst_73:A1 0.3395
*END

*D_NET net_4 1.7273
*CONN
*P n40gat I
*I inst_52:A2 I
*I inst_93:A1 I
*CAP
1 n40gat 0.1311
2 net_4:1 0.0535
3 net_4:2 0.0383
4 inst_93:A1 0.2939
5 net_4:3 0.1825
6 net_4:4 0.4154
7 net_4:5 0.4205
8 inst_52:A2 0.1921
*RES
2 n40gat net_4:1 0.2177
3 net_4:1 net_4:2 0.0520
4 net_4:2 inst_93:A1 0.1787
5 net_4:2 net_4:3 0.3303
6 net_4:3 net_4:4 0.0500
7 net_4:4 net_4:5 0.3450
8 net_4:5 inst_52:A2 0.2552
*END

*D_NET net_95 0.9333
*CONN
*I inst_86:ZN O
*I inst_62:A1 I
*CAP
1 inst_86:ZN 0.3943
2 net_95:1 0.3586
3 inst_62:A1 0.1804
*RES
2 inst_86:ZN net_95:1 0.2132
3 net_95:1 inst_62:A1 0.3448
*END

*D_NET net_17 1.1677
*CONN
*P n34gat I
*I inst_132:A2 I
*I inst_81:A1 I
*CAP
1 n34gat 0.0169
2 net_17:1 0.3418
3 net_17:2 0.0277
4 net_17:3 0.2232
5 inst_81:A1 0.0700
6 net_17:4 0.2720
7 net_17:5 0.0605
8 inst_132:A2 0.1555
*RES
2 n34gat net_17:1 0.3825
3 net_17:1 net_17:2 0.4916
4 net_17:2 net_17:3 0.0258
5 net_17:3 inst_81:A1 0.0722
6 net_17:2 net_17:4 0.4347
7 net_17:4 net_17:5 0.2976
8 net_17:5 inst_132:A2 0.3531
*END

*D_NET net_78 0.8501
*CONN
*I inst_12:ZN O
*I inst_52:A4 I
*CAP
1 inst_12:ZN 0.1823
2 net_78:1 0.3163
3 inst_52:A4 0.3515
*RES
2 inst_12:ZN net_78:1 0.2983
3 net_78:1 inst_52:A4 0.4269
*END

*D_NET n370gat 9.7105
*CONN
*I inst_53:ZN O
*P n370gat O
*I inst_86:A2 I
*I inst_90:A2 I
*I inst_93:A2 I
*I inst_92:A2 I
*I inst_88:A2 I
*I inst_91:A2 I
*I inst_87:A2 I
*I inst_89:A2 I
*I inst_94:A2 I
*CAP
1 inst_53:ZN 0.0341
2 n370gat:1 0.3389
3 n370gat:2 0.4000
4 n370gat:3 0.0188
5 n370gat:4 0.4709
6 n370gat 0.4204
7 n370gat:5 0.0970
8 n370gat:6 0.2798
9 n370gat:7 0.3150
10 inst_86:A2 0.0137
11 n370gat:8 0.4010
12 inst_90:A2 0.2910
13 n370gat:9 0.3715
14 n370gat:10 0.3144
15 n370gat:11 0.3618
16 n370gat:12 0.0820
17 inst_93:A2 0.2174
18 n370gat:13 0.1396
19 n370gat:14 0.0910
20 n370gat:15 0.1278
21 n370gat:16 0.3093
22 n370gat:17 0.3342
23 inst_92:A2 0.2150
24 n370gat:18 0.0546
25 inst_88:A2 0.0043
26 n370gat:19 0.1466
27 n370gat:20 0.2784
28 n370gat:21 0.2008
29 inst_91:A2 0.3776
30 n370gat:22 0.3809
31 n370gat:23 0.3567
32 inst_87:A2 0.3242
33 n370gat:24 0.2211
34 n370gat:25 0.2185
35 n370gat:26 0.2266
36 n370gat:27 0.2538
37 inst_89:A2 0.1297
38 n370gat:28 0.4053
39 n370gat:29 0.0863
40 n370gat:30 0.2362
41 n370gat:31 0.1365
42 inst_94:A2 0.0277
*RES
2 inst_53:ZN n370gat:1 0.0122
3 n370gat:1 n370gat:2 0.2688
4 n370gat:2 n370gat:3 0.0936
5 n370gat:3 n370gat:4 0.3051
6 n370gat:4 n370gat 0.1197
7 n370gat:3 n370gat:5 0.2108
8 n370gat:5 n370gat:6 0.3101
9 n370gat:6 n370gat:7 0.0161
10 n370gat:7 inst_86:A2 0.2047
11 n370gat:6 n370gat:8 0.3768
12 n370gat:8 inst_90:A2 0.3083
13 n370gat:2 n370gat:9 0.3638
14 n370gat:9 n370gat:10 0.4097
15 n370gat:10 n370gat:11 0.2418
16 n370gat:11 n370gat:12 0.4080
17 n370gat:12 inst_93:A2 0.3118
18 n370gat:8 n370gat:13 0.0109
19 n370gat:13 n370gat:14 0.1830
20 n370gat:14 n370gat:15 0.2298
21 n370gat:15 n370gat:16 0.0712
22 n370gat:16 n370gat:17 0.0044
23 n370gat:17 inst_92:A2 0.1986
24 n370gat:2 n370gat:18 0.2737
25 n370gat:18 inst_88:A2 0.4724
26 n370gat:10 n370gat:19 0.2937
27 n370gat:19 n370gat:20 0.0093
28 n370gat:20 n370gat:21 0.2822
29 n370gat:21 inst_91:A2 0.4311
30 n370gat:1 n370gat:22 0.2336
31 n370gat:22 n370gat:23 0.3863
32 n370gat:23 inst_87:A2 0.2365
33 n370gat:5 n370gat:24 0.4791
34 n370gat:24 n370gat:25 0.2417
35 n370gat:25 n370gat:26 0.2444
36 n370gat:26 n370gat:27 0.4262
37 n370gat:27 inst_89:A2 0.3737
38 n370gat:10 n370gat:28 0.4263
39 n370gat:28 n370gat:29 0.2912
40 n370gat:29 n370gat:30 0.1111
41 n370gat:30 n370gat:31 0.3711
42 n370gat:31 inst_94:A2 0.0512
*END

*D_NET net_27 2.6000
*CONN
*I inst_25:ZN O
*I inst_6:A I
*I inst_46:A1 I
*CAP
1 inst_25:ZN 0.0984
2 net_27:1 0.4376
3 inst_6:A 0.1423
4 net_27:2 0.4832
5 net_27:3 0.2776
6 net_27:4 0.3781
7 net_27:5 0.3766
8 net_27:6 0.0185
9 inst_46:A1 0.3877
*RES
2 inst_25:ZN net_27:1 0.1283
3 net_27:1 inst_6:A 0.1146
4 net_27:1 net_27:2 0.1588
5 net_27:2 net_27:3 0.3738
6 net_27:3 net_27:4 0.4556
7 net_27:4 net_27:5 0.1835
8 net_27:5 net_27:6 0.0020
9 net_27:6 inst_46:A1 0.2614
*END

*D_NET net_56 1.4224
*CONN
*I inst_42:ZN O
*I inst_76:A2 I
*CAP
1 inst_42:ZN 0.2164
2 net_56:1 0.1158
3 net_56:2 0.1153
4 net_56:3 0.3810
5 net_56:4 0.1100
6 net_56:5 0.1662
7 inst_76:A2 0.3178
*RES
2 inst_42:ZN net_56:1 0.2541
3 net_56:1 net_56:2 0.2497
4 net_56:2 net_56:3 0.4625
5 net_56:3 net_56:4 0.2343
6 net_56:4 net_56:5 0.0981
7 net_56:5 inst_76:A2 0.3461
*END

*D_NET net_87 0.6556
*CONN
*I inst_49:ZN O
*I inst_53:A1 I
*CAP
1 inst_49:ZN 0.4109
2 net_87:1 0.2326
3 inst_53:A1 0.0121
*RES
2 inst_49:ZN net_87:1 0.2674
3 net_87:1 inst_53:A1 0.2072
*END

*D_NET net_0 4.7300
*CONN
*P n69gat I
*I inst_36:A1 I
*I inst_127:A1 I
*I inst_58:A2 I
*I inst_49:A1 I
*CAP
1 n69gat 0.2455
2 net_0:1 0.0138
3 net_0:2 0.4527
4 inst_36:A1 0.3131
5 net_0:3 0.4199
6 net_0:4 0.3736
7 net_0:5 0.3306
8 inst_127:A1 0.3042
9 net_0:6 0.0758
10 net_0:7 0.0262
11 net_0:8 0.3812
12 net_0:9 0.0656
13 inst_58:A2 0.1550
14 net_0:10 0.3913
15 net_0:11 0.2131
16 net_0:12 0.3201
17 net_0:13 0.0320
18 net_0:14 0.2786
19 inst_49:A1 0.3378
*RES
2 n69gat net_0:1 0.4392
3 net_0:1 net_0:2 0.4048
4 net_0:2 inst_36:A1 0.0368
5 net_0:2 net_0:3 0.1317
6 net_0:3 net_0:4 0.1481
7 net_0:4 net_0:5 0.2485
8 net_0:5 inst_127:A1 0.2201
9 net_0:3 net_0:6 0.0047
10 net_0:6 net_0:7 0.1418
11 net_0:7 net_0:8 0.2138
12 net_0:8 net_0:9 0.3805
13 net_0:9 inst_58:A2 0.2523
14 net_0:1 net_0:10 0.4364
15 net_0:10 net_0:11 0.2454
16 net_0:11 net_0:12 0.4527
17 net_0:12 net_0:13 0.2663
18 net_0:13 net_0:14 0.3641
19 net_0:14 inst_49:A1 0.1740
*END

*D_NET net_35 1.7738
*CONN
*I inst_71:ZN O
*I inst_62:A3 I
*CAP
1 inst_71:ZN 0.3351
2 net_35:1 0.3004
3 net_35:2 0.3665
4 net_35:3 0.1341
5 net_35:4 0.0859
6 net_35:5 0.1706
7 inst_62:A3 0.3812
*RES
2 inst_71:ZN net_35:1 0.0751
3 net_35:1 net_35:2 0.1227
4 net_35:2 net_35:3 0.0294
5 net_35:3 net_35:4 0.0059
6 net_35:4 net_35:5 0.3552
7 net_35:5 inst_62:A3 0.3839
*END

*D_NET net_22 3.4118
*CONN
*I inst_36:ZN O
*I inst_26:A3 I
*I inst_0:A I
*CAP
1 inst_36:ZN 0.4010
2 net_22:1 0.4559
3 net_22:2 0.3575
4 net_22:3 0.1715
5 net_22:4 0.3050
6 inst_26:A3 0.3594
7 net_22:5 0.2908
8 net_22:6 0.3318
9 net_22:7 0.3308
10 inst_0:A 0.4080
*RES
2 inst_36:ZN net_22:1 0.4902
3 net_22:1 net_22:2 0.4716
4 net_22:2 net_22:3 0.2112
5 net_22:3 net_22:4 0.1762
6 net_22:4 inst_26:A3 0.1166
7 net_22:1 net_22:5 0.4669
8 net_22:5 net_22:6 0.1932
9 net_22:6 net_22:7 0.0675
10 net_22:7 inst_0:A 0.0053
*END

*D_NET net_16 3.4813
*CONN
*P n115gat I
*I inst_48:A2 I
*I inst_86:A1 I
*CAP
1 n115gat 0.0437
2 net_16:1 0.3838
3 net_16:2 0.2033
4 net_16:3 0.3263
5 net_16:4 0.4574
6 net_16:5 0.4683
7 inst_48:A2 0.1543
8 net_16:6 0.4210
9 net_16:7 0.2594
10 net_16:8 0.3565
11 inst_86:A1 0.4074
*RES
2 n115gat net_16:1 0.4873
3 net_16:1 net_16:2 0.1669
4 net_16:2 net_16:3 0.4800
5 net_16:3 net_16:4 0.4518
6 net_16:4 net_16:5 0.0570
7 net_16:5 inst_48:A2 0.4909
8 net_16:1 net_16:6 0.4309
9 net_16:6 net_16:7 0.4474
10 net_16:7 net_16:8 0.2931
11 net_16:8 inst_86:A1 0.2848
*END

*D_NET net_39 1.9018
*CONN
*I inst_75:ZN O
*I inst_60:A3 I
*CAP
1 inst_75:ZN 0.3320
2 net_39:1 0.3663
3 net_39:2 0.1512
4 net_39:3 0.1368
5 net_39:4 0.4493
6 inst_60:A3 0.4663
*RES
2 inst_75:ZN net_39:1 0.2866
3 net_39:1 net_39:2 0.1873
4 net_39:2 net_39:3 0.1599
5 net_39:3 net_39:4 0.3589
6 net_39:4 inst_60:A3 0.4697
*END

*D_NET n92gat 1.7596
*CONN
*P n92gat I
*I inst_89:A1 I
*I inst_28:A2 I
*CAP
1 n92gat 0.0401
2 n92gat:1 0.1883
3 n92gat:2 0.3075
4 n92gat:3 0.0604
5 inst_28:A2 0.3908
6 n92gat:4 0.3010
7 n92gat:5 0.1515
8 n92gat:6 0.0492
9 inst_89:A1 0.2707
*RES
2 n92gat n92gat:1 0.2921
3 n92gat:1 n92gat:2 0.4162
4 n92gat:2 n92gat:3 0.1285
5 n92gat:3 inst_28:A2 0.0491
6 n92gat:3 n92gat:4 0.0711
7 n92gat:4 n92gat:5 0.2365
8 n92gat:5 n92gat:6 0.0021
9 n92gat:6 inst_89:A1 0.2080
*END

*D_NET net_102 2.0999
*CONN
*I inst_93:ZN O
*I inst_60:A1 I
*CAP
1 inst_93:ZN 0.4886
2 net_102:1 0.4404
3 net_102:2 0.3187
4 net_102:3 0.4272
5 net_102:4 0.0224
6 inst_60:A1 0.4026
*RES
2 inst_93:ZN net_102:1 0.2784
3 net_102:1 net_102:2 0.1803
4 net_102:2 net_102:3 0.0882
5 net_102:3 net_102:4 0.2924
6 net_102:4 inst_60:A1 0.4780
*END

*D_NET net_2 2.7205
*CONN
*P n99gat I
*I inst_129:A2 I
*I inst_84:A1 I
*CAP
1 n99gat 0.1182
2 net_2:1 0.1530
3 net_2:2 0.2582
4 net_2:3 0.4484
5 inst_84:A1 0.0762
6 net_2:4 0.4880
7 net_2:5 0.4169
8 net_2:6 0.3167
9 net_2:7 0.3376
10 inst_129:A2 0.1073
*RES
2 n99gat net_2:1 0.1986
3 net_2:1 net_2:2 0.3922
4 net_2:2 net_2:3 0.3950
5 net_2:3 inst_84:A1 0.2666
6 net_2:2 net_2:4 0.3579
7 net_2:4 net_2:5 0.1300
8 net_2:5 net_2:6 0.3795
9 net_2:6 net_2:7 0.2362
10 net_2:7 inst_129:A2 0.1908
*END

*D_NET net_9 2.2984
*CONN
*P n66gat I
*I inst_51:A2 I
*I inst_91:A1 I
*CAP
1 n66gat 0.3123
2 net_9:1 0.0048
3 net_9:2 0.3126
4 inst_51:A2 0.0195
5 net_9:3 0.4038
6 net_9:4 0.1954
7 net_9:5 0.0063
8 net_9:6 0.4904
9 net_9:7 0.0915
10 inst_91:A1 0.4619
*RES
2 n66gat net_9:1 0.0541
3 net_9:1 net_9:2 0.3700
4 net_9:2 inst_51:A2 0.3260
5 net_9:2 net_9:3 0.1065
6 net_9:3 net_9:4 0.1990
7 net_9:4 net_9:5 0.2576
8 net_9:5 net_9:6 0.0690
9 net_9:6 net_9:7 0.2231
10 net_9:7 inst_91:A1 0.2934
*END

*D_NET net_59 0.5565
*CONN
*I inst_43:ZN O
*I inst_63:A3 I
*CAP
1 inst_43:ZN 0.0281
2 net_59:1 0.2539
3 net_59:2 0.0765
4 inst_63:A3 0.1980
*RES
2 inst_43:ZN net_59:1 0.3226
3 net_59:1 net_59:2 0.1282
4 net_59:2 inst_63:A3 0.2766
*END

*D_NET n14gat 3.3655
*CONN
*P n14gat I
*I inst_90:A1 I
*I inst_29:A2 I
*CAP
1 n14gat 0.4267
2 n14gat:1 0.3295
3 n14gat:2 0.4724
4 n14gat:3 0.4631
5 n14gat:4 0.0407
6 n14gat:5 0.4130
7 inst_29:A2 0.3462
8 n14gat:6 0.0346
9 n14gat:7 0.4333
10 n14gat:8 0.0645
11 inst_90:A1 0.3416
*RES
2 n14gat n14gat:1 0.0714
3 n14gat:1 n14gat:2 0.2110
4 n14gat:2 n14gat:3 0.2588
5 n14gat:3 n14gat:4 0.0339
6 n14gat:4 n14gat:5 0.0519
7 n14gat:5 inst_29:A2 0.4874
8 n14gat:3 n14gat:6 0.4099
9 n14gat:6 n14gat:7 0.1540
10 n14gat:7 n14gat:8 0.0325
11 n14gat:8 inst_90:A1 0.0924
*END

*D_NET net_42 2.4073
*CONN
*I inst_1:ZN O
*I inst_47:A3 I
*I inst_129:A3 I
*CAP
1 inst_1:ZN 0.1516
2 net_42:1 0.4228
3 net_42:2 0.1417
4 net_42:3 0.3754
5 inst_47:A3 0.2016
6 net_42:4 0.2042
7 net_42:5 0.2030
8 net_42:6 0.2656
9 inst_129:A3 0.4413
*RES
2 inst_1:ZN net_42:1 0.0068
3 net_42:1 net_42:2 0.2001
4 net_42:2 net_42:3 0.4220
5 net_42:3 inst_47:A3 0.4926
6 net_42:3 net_42:4 0.1336
7 net_42:4 net_42:5 0.4042
8 net_42:5 net_42:6 0.0451
9 net_42:6 inst_129:A3 0.2391
*END

*D_NET net_120 2.7729
*CONN
*I inst_57:ZN O
*I inst_22:A1 I
*I inst_34:A2 I
*I inst_97:A2 I
*CAP
1 inst_57:ZN 0.4146
2 net_120:1 0.2654
3 inst_22:A1 0.2245
4 net_120:2 0.4235
5 inst_34:A2 0.1903
6 net_120:3 0.4838
7 net_120:4 0.0722
8 net_120:5 0.3539
9 inst_97:A2 0.3446
*RES
2 inst_57:ZN net_120:1 0.4797
3 net_120:1 inst_22:A1 0.0551
4 net_120:1 net_120:2 0.2143
5 net_120:2 inst_34:A2 0.0701
6 net_120:2 net_120:3 0.0192
7 net_120:3 net_120:4 0.1341
8 net_120:4 net_120:5 0.4054
9 net_120:5 inst_97:A2 0.3681
*END

*D_NET net_80 0.7963
*CONN
*I inst_14:ZN O
*I inst_30:A4 I
*CAP
1 inst_14:ZN 0.1561
2 net_80:1 0.0224
3 net_80:2 0.3933
4 inst_30:A4 0.2244
*RES
2 inst_14:ZN net_80:1 0.4154
3 net_80:1 net_80:2 0.1374
4 net_80:2 inst_30:A4 0.1713
*END

*D_NET net_65 2.7433
*CONN
*I inst_21:ZN O
*I inst_15:A I
*I inst_63:A2 I
*CAP
1 inst_21:ZN 0.3119
2 net_65:1 0.3583
3 net_65:2 0.0251
4 net_65:3 0.0071
5 net_65:4 0.2242
6 net_65:5 0.4834
7 inst_15:A 0.4589
8 net_65:6 0.4409
9 inst_63:A2 0.4335
*RES
2 inst_21:ZN net_65:1 0.0098
3 net_65:1 net_65:2 0.3264
4 net_65:2 net_65:3 0.2846
5 net_65:3 net_65:4 0.4721
6 net_65:4 net_65:5 0.1185
7 net_65:5 inst_15:A 0.4585
8 net_65:5 net_65:6 0.3158
9 net_65:6 inst_63:A2 0.2513
*END

*D_NET net_50 1.8874
*CONN
*I inst_5:ZN O
*I inst_21:A3 I
*I inst_28:A3 I
*CAP
1 inst_5:ZN 0.1640
2 net_50:1 0.3155
3 net_50:2 0.4909
4 inst_28:A3 0.2285
5 net_50:3 0.2112
6 net_50:4 0.3238
7 inst_21:A3 0.1536
*RES
2 inst_5:ZN net_50:1 0.2293
3 net_50:1 net_50:2 0.4514
4 net_50:2 inst_28:A3 0.1489
5 net_50:2 net_50:3 0.2744
6 net_50:3 net_50:4 0.3973
7 net_50:4 inst_21:A3 0.0682
*END

*D_NET net_96 0.9480
*CONN
*I inst_87:ZN O
*I inst_54:A1 I
*CAP
1 inst_87:ZN 0.2235
2 net_96:1 0.2665
3 inst_54:A1 0.4580
*RES
2 inst_87:ZN net_96:1 0.4392
3 net_96:1 inst_54:A1 0.4660
*END

*D_NET net_66 0.7474
*CONN
*I inst_77:ZN O
*I inst_55:A4 I
*CAP
1 inst_77:ZN 0.2711
2 net_66:1 0.1130
3 net_66:2 0.0719
4 inst_55:A4 0.2913
*RES
2 inst_77:ZN net_66:1 0.3837
3 net_66:1 net_66:2 0.4308
4 net_66:2 inst_55:A4 0.4593
*END

*D_NET net_38 1.7533
*CONN
*I inst_74:ZN O
*I inst_54:A3 I
*CAP
1 inst_74:ZN 0.1666
2 net_38:1 0.2000
3 net_38:2 0.4330
4 net_38:3 0.3792
5 net_38:4 0.3945
6 net_38:5 0.1168
7 inst_54:A3 0.0632
*RES
2 inst_74:ZN net_38:1 0.3389
3 net_38:1 net_38:2 0.2267
4 net_38:2 net_38:3 0.0022
5 net_38:3 net_38:4 0.3986
6 net_38:4 net_38:5 0.0342
7 net_38:5 inst_54:A3 0.1492
*END

*D_NET net_44 2.3530
*CONN
*I inst_2:ZN O
*I inst_131:A3 I
*I inst_50:A3 I
*CAP
1 inst_2:ZN 0.2299
2 net_44:1 0.0789
3 net_44:2 0.1418
4 net_44:3 0.2162
5 net_44:4 0.3480
6 net_44:5 0.3423
7 inst_131:A3 0.3091
8 net_44:6 0.2194
9 net_44:7 0.0694
10 net_44:8 0.1731
11 net_44:9 0.0340
12 inst_50:A3 0.1910
*RES
2 inst_2:ZN net_44:1 0.3077
3 net_44:1 net_44:2 0.0259
4 net_44:2 net_44:3 0.3818
5 net_44:3 net_44:4 0.2326
6 net_44:4 net_44:5 0.3632
7 net_44:5 inst_131:A3 0.2277
8 net_44:1 net_44:6 0.0233
9 net_44:6 net_44:7 0.1519
10 net_44:7 net_44:8 0.4158
11 net_44:8 net_44:9 0.0326
12 net_44:9 inst_50:A3 0.2788
*END

*D_NET n421gat 0.9590
*CONN
*I inst_133:ZN O
*P n421gat O
*CAP
1 inst_133:ZN 0.0975
2 n421gat:1 0.3850
3 n421gat:2 0.2235
4 n421gat 0.2530
*RES
2 inst_133:ZN n421gat:1 0.0538
3 n421gat:1 n421gat:2 0.1085
4 n421gat:2 n421gat 0.3839
*END

*D_NET net_19 2.5573
*CONN
*I inst_66:ZN O
*I inst_8:A I
*I inst_46:A2 I
*CAP
1 inst_66:ZN 0.1655
2 net_19:1 0.3040
3 net_19:2 0.3068
4 net_19:3 0.1313
5 net_19:4 0.0490
6 inst_8:A 0.1490
7 net_19:5 0.4065
8 net_19:6 0.3838
9 net_19:7 0.2328
10 net_19:8 0.0616
11 inst_46:A2 0.3670
*RES
2 inst_66:ZN net_19:1 0.4082
3 net_19:1 net_19:2 0.0586
4 net_19:2 net_19:3 0.2553
5 net_19:3 net_19:4 0.4766
6 net_19:4 inst_8:A 0.4662
7 net_19:1 net_19:5 0.3852
8 net_19:5 net_19:6 0.1467
9 net_19:6 net_19:7 0.2409
10 net_19:7 net_19:8 0.4071
11 net_19:8 inst_46:A2 0.2078
*END

*D_NET net_89 0.6644
*CONN
*I inst_51:ZN O
*I inst_64:A2 I
*CAP
1 inst_51:ZN 0.2212
2 net_89:1 0.1904
3 inst_64:A2 0.2527
*RES
2 inst_51:ZN net_89:1 0.0491
3 net_89:1 inst_64:A2 0.0298
*END

*D_NET net_45 1.3700
*CONN
*I inst_6:ZN O
*I inst_20:A3 I
*I inst_30:A3 I
*CAP
1 inst_6:ZN 0.3430
2 net_45:1 0.2799
3 inst_30:A3 0.1542
4 net_45:2 0.4120
5 net_45:3 0.1627
6 inst_20:A3 0.0181
*RES
2 inst_6:ZN net_45:1 0.1497
3 net_45:1 inst_30:A3 0.2415
4 net_45:1 net_45:2 0.3748
5 net_45:2 net_45:3 0.3179
6 net_45:3 inst_20:A3 0.1204
*END

*D_NET net_126 1.6449
*CONN
*I inst_34:ZN O
*I inst_18:A1 I
*I inst_23:A3 I
*CAP
1 inst_34:ZN 0.1679
2 net_126:1 0.3745
3 inst_18:A1 0.1708
4 net_126:2 0.3553
5 net_126:3 0.1500
6 inst_23:A3 0.4264
*RES
2 inst_34:ZN net_126:1 0.0756
3 net_126:1 inst_18:A1 0.2634
4 net_126:1 net_126:2 0.0163
5 net_126:2 net_126:3 0.2331
6 net_126:3 inst_23:A3 0.4626
*END

*D_NET net_34 0.1862
*CONN
*I inst_70:ZN O
*I inst_61:A3 I
*CAP
1 inst_70:ZN 0.1724
2 net_34:1 0.0020
3 inst_61:A3 0.0117
*RES
2 inst_70:ZN net_34:1 0.2437
3 net_34:1 inst_61:A3 0.2268
*END

*D_NET net_108 3.5570
*CONN
*I inst_60:ZN O
*I inst_44:A1 I
*I inst_96:A1 I
*I inst_98:A2 I
*CAP
1 inst_60:ZN 0.0296
2 net_108:1 0.1876
3 net_108:2 0.0595
4 net_108:3 0.2550
5 inst_96:A1 0.4579
6 net_108:4 0.3670
7 net_108:5 0.0788
8 net_108:6 0.0125
9 net_108:7 0.4083
10 inst_44:A1 0.2037
11 net_108:8 0.3686
12 net_108:9 0.1667
13 net_108:10 0.4317
14 net_108:11 0.1120