*SPEF "IEEE 1481-1998"
*DESIGN "c2670"
*DATE "Tue Nov 25 16:54:40 2014"
*VENDOR "TAU 2015 Contest"
*PROGRAM "Benchmark Parasitic Generator"
*VERSION "0.0"
*DESIGN_FLOW "NETLIST_TYPE_VERILOG"
*DIVIDER /
*DELIMITER :
*BUS_DELIMITER [ ]
*T_UNIT 1 PS
*C_UNIT 1 FF
*R_UNIT 1 KOHM
*L_UNIT 1 UH

*D_NET n2678 1.0746
*CONN
*P n2678 I
*I inst_10:A I
*CAP
1 n2678 0.0012
2 inst_10:A 0.0166
3 n2678:1 0.0126
4 n2678:2 0.2212
5 n2678:3 0.2209
6 n2678:4 0.0205
7 n2678:5 0.2908
8 n2678:6 0.2908
*RES
2 n2678 n2678:1 0.0010
3 inst_10:A n2678:6 0.0050
4 n2678:2 n2678:1 0.0050
5 n2678:2 n2678:3 0.0309
6 n2678:3 n2678:4 0.0010
7 n2678:5 n2678:4 0.0050
8 n2678:5 n2678:6 0.0255
*END

*D_NET net_47 0.4853
*CONN
*I inst_193:ZN O
*I inst_133:A2 I
*CAP
1 inst_193:ZN 0.0166
2 inst_133:A2 0.0166
3 net_47:1 0.0206
4 net_47:2 0.0206
5 net_47:3 0.1751
6 net_47:4 0.1751
7 net_47:5 0.0303
8 net_47:6 0.0303
*RES
2 inst_133:A2 net_47:6 0.0050
3 net_47:1 inst_193:ZN 0.0050
4 net_47:1 net_47:2 0.0010
5 net_47:3 net_47:2 0.0050
6 net_47:4 net_47:3 0.0129
7 net_47:5 net_47:4 0.0050
8 net_47:5 net_47:6 0.0015
*END

*D_NET n2 3.5113
*CONN
*P n2 I
*I inst_144:A3 I
*CAP
1 n2 0.0130
2 inst_144:A3 0.0244
3 n2:1 0.0206
4 n2:2 0.0153
5 n2:3 0.0153
6 n2:4 0.0400
7 n2:5 0.0484
8 n2:6 0.6463
9 n2:7 0.6379
10 n2:8 0.9569
11 n2:9 0.9569
12 n2:10 0.0177
13 n2:11 0.0152
14 n2:12 0.0353
15 n2:13 0.0353
16 n2:14 0.0327
*RES
2 n2 n2:1 0.0010
3 n2:2 n2:1 0.0050
4 n2:2 n2:3 0.0010
5 n2:4 n2:3 0.0050
6 n2:4 n2:5 0.0010
7 n2:5 n2:6 0.0010
8 n2:6 n2:7 0.0197
9 n2:8 n2:7 0.0030
10 n2:8 n2:9 0.0307
11 n2:10 n2:9 0.0030
12 n2:11 n2:10 0.0050
13 n2:12 n2:11 0.0050
14 n2:13 n2:12 0.0025
15 n2:14 inst_144:A3 0.0030
16 n2:14 n2:13 0.0050
*END

*D_NET net_176 0.2134
*CONN
*I inst_16:Z O
*I inst_137:A4 I
*CAP
1 inst_16:Z 0.0166
2 inst_137:A4 0.0236
3 net_176:1 0.0707
4 net_176:2 0.0707
5 net_176:3 0.0319
*RES
2 inst_137:A4 net_176:3 0.0031
3 net_176:1 inst_16:Z 0.0050
4 net_176:1 net_176:2 0.0080
5 net_176:3 net_176:2 0.0050
*END

*D_NET n319 2.5980
*CONN
*I inst_299:ZN O
*P n319 O
*I inst_135:A4 I
*I inst_136:A4 I
*CAP
1 n319 0.0156
2 inst_299:ZN 0.0304
3 inst_135:A4 0.0077
4 inst_136:A4 0.0166
5 n319:1 0.0160
6 n319:2 0.0152
7 n319:3 0.0672
8 n319:4 0.0672
9 n319:5 0.0449
10 n319:6 0.0449
11 n319:7 0.0691
12 n319:8 0.0691
13 n319:9 0.0148
14 n319:10 0.0232
15 n319:11 0.0308
16 n319:12 0.0224
17 n319:13 0.0141
18 n319:14 0.4360
19 n319:15 0.4360
20 n319:16 0.0534
21 n319:17 0.0534
22 n319:18 0.0353
23 n319:19 0.0353
24 n319:20 0.0174
25 n319:21 0.1988
26 n319:22 0.1890
27 n319:23 0.0161
28 n319:24 0.0161
29 n319:25 0.2226
30 n319:26 0.2221
31 n319:27 0.0202
32 n319:28 0.0232
33 n319:29 0.0387
34 n319:30 0.0152
*RES
2 inst_135:A4 n319:1 0.0010
3 n319:2 n319:1 0.0050
4 n319:3 n319:2 0.0050
5 n319:3 n319:4 0.0041
6 n319:5 inst_136:A4 0.0050
7 n319:5 n319:4 0.0050
8 n319:5 n319:6 0.0030
9 n319:7 n319:6 0.0050
10 n319:7 n319:8 0.0050
11 n319:9 n319:8 0.0050
12 n319:9 n319:10 0.0010
13 n319:10 n319:11 0.0010
14 n319:11 n319:12 0.0010
15 n319:13 n319:12 0.0030
16 n319:14 n319:13 0.0030
17 n319:14 n319:15 0.0172
18 n319:16 n319:15 0.0030
19 n319:16 n319:17 0.0029
20 n319:18 n319:17 0.0030
21 n319:18 n319:19 0.0010
22 n319:20 n319:19 0.0050
23 n319:20 n319:21 0.0010
24 n319:21 n319:22 0.0163
25 n319:22 n319:23 0.0050
26 n319:23 n319:24 0.0010
27 n319:24 n319:25 0.0050
28 n319:25 n319:26 0.0268
29 n319:27 n319:26 0.0010
30 n319:27 n319:28 0.0050
31 n319:28 n319 0.0011
32 n319:29 inst_299:ZN 0.0031
33 n319:30 n319:21 0.0050
34 n319:30 n319:29 0.0050
*END

*D_NET net_215 0.7118
*CONN
*I inst_138:ZN O
*I inst_77:A3 I
*CAP
1 inst_138:ZN 0.0166
2 inst_77:A3 0.0166
3 net_215:1 0.0413
4 net_215:2 0.0413
5 net_215:3 0.0398
6 net_215:4 0.0398
7 net_215:5 0.1835
8 net_215:6 0.1835
9 net_215:7 0.0133
10 net_215:8 0.0133
11 net_215:9 0.0633
12 net_215:10 0.0595
*RES
2 inst_77:A3 net_215:10 0.0050
3 net_215:1 inst_138:ZN 0.0050
4 net_215:1 net_215:2 0.0040
5 net_215:3 net_215:2 0.0050
6 net_215:3 net_215:4 0.0048
7 net_215:5 net_215:4 0.0050
8 net_215:5 net_215:6 0.0057
9 net_215:7 net_215:6 0.0050
10 net_215:7 net_215:8 0.0010
11 net_215:9 net_215:8 0.0050
12 net_215:9 net_215:10 0.0050
*END

*D_NET net_137 0.4199
*CONN
*I inst_265:Z O
*I inst_19:B I
*CAP
1 inst_265:Z 0.0166
2 inst_19:B 0.0166
3 net_137:1 0.0162
4 net_137:2 0.0162
5 net_137:3 0.0099
6 net_137:4 0.0099
7 net_137:5 0.1320
8 net_137:6 0.1320
9 net_137:7 0.0115
10 net_137:8 0.0115
11 net_137:9 0.0238
12 net_137:10 0.0238
*RES
2 inst_19:B net_137:10 0.0050
3 net_137:1 inst_265:Z 0.0050
4 net_137:2 net_137:1 0.0010
5 net_137:3 net_137:2 0.0050
6 net_137:3 net_137:4 0.0010
7 net_137:5 net_137:4 0.0050
8 net_137:6 net_137:5 0.0048
9 net_137:7 net_137:6 0.0050
10 net_137:8 net_137:7 0.0010
11 net_137:9 net_137:8 0.0050
12 net_137:10 net_137:9 0.0015
*END

*D_NET n1971 3.0148
*CONN
*P n1971 I
*I inst_24:B I
*I inst_45:B I
*I inst_238:A1 I
*CAP
1 n1971 0.0175
2 inst_24:B 0.0166
3 inst_45:B 0.0166
4 inst_238:A1 0.0166
5 n1971:1 0.0237
6 n1971:2 0.0275
7 n1971:3 0.1183
8 n1971:4 0.0535
9 n1971:5 0.2692
10 n1971:6 0.0426
11 n1971:7 0.0691
12 n1971:8 0.0729
13 n1971:9 0.0724
14 n1971:10 0.0289
15 n1971:11 0.8266
16 n1971:12 0.8266
17 n1971:13 0.1207
18 n1971:14 0.1207
19 n1971:15 0.0184
20 n1971:16 0.0184
21 n1971:17 0.2380
*RES
2 n1971:1 inst_24:B 0.0050
3 n1971:2 n1971:1 0.0015
4 n1971:3 n1971:2 0.0050
5 n1971:3 n1971:4 0.0047
6 n1971:5 n1971:4 0.0050
7 n1971:5 n1971:17 0.0215
8 n1971:6 inst_238:A1 0.0050
9 n1971:6 n1971:5 0.0030
10 n1971:7 inst_45:B 0.0050
11 n1971:7 n1971:8 0.0085
12 n1971:9 n1971:3 0.0054
13 n1971:9 n1971:8 0.0050
14 n1971:10 n1971 0.0025
15 n1971:11 n1971:10 0.0050
16 n1971:12 n1971:11 0.0449
17 n1971:13 n1971:12 0.0050
18 n1971:14 n1971:13 0.0070
19 n1971:15 n1971:14 0.0050
20 n1971:16 n1971:15 0.0014
21 n1971:17 n1971:16 0.0050
*END

*D_NET net_132 0.2721
*CONN
*I inst_12:Z O
*I inst_46:A I
*CAP
1 inst_12:Z 0.0166
2 inst_46:A 0.0166
3 net_132:1 0.0486
4 net_132:2 0.0509
5 net_132:3 0.0709
6 net_132:4 0.0685
*RES
2 inst_46:A net_132:4 0.0050
3 net_132:1 inst_12:Z 0.0050
4 net_132:2 net_132:1 0.0045
5 net_132:3 net_132:2 0.0010
6 net_132:4 net_132:3 0.0085
*END

*D_NET net_54 0.6166
*CONN
*I inst_162:ZN O
*I inst_128:A3 I
*CAP
1 inst_162:ZN 0.0154
2 inst_128:A3 0.0166
3 net_54:1 0.0237
4 net_54:2 0.0670
5 net_54:3 0.0708
6 net_54:4 0.2039
7 net_54:5 0.2039
8 net_54:6 0.0152
*RES
2 inst_162:ZN net_54:1 0.0021
3 inst_128:A3 net_54:6 0.0050
4 net_54:2 net_54:1 0.0050
5 net_54:2 net_54:3 0.0075
6 net_54:4 net_54:3 0.0050
7 net_54:4 net_54:5 0.0136
8 net_54:6 net_54:5 0.0050
*END

*D_NET net_237 0.1343
*CONN
*I inst_116:ZN O
*I inst_84:A3 I
*CAP
1 inst_116:ZN 0.0166
2 inst_84:A3 0.0166
3 net_237:1 0.0505
4 net_237:2 0.0505
*RES
2 inst_84:A3 net_237:2 0.0050
3 net_237:1 inst_116:ZN 0.0050
4 net_237:2 net_237:1 0.0035
*END

*D_NET n94 1.4530
*CONN
*P n94 I
*I inst_343:A1 I
*CAP
1 n94 0.0156
2 inst_343:A1 0.0166
3 n94:1 0.0232
4 n94:2 0.0177
5 n94:3 0.1999
6 n94:4 0.1974
7 n94:5 0.3926
8 n94:6 0.3926
9 n94:7 0.0653
10 n94:8 0.0653
11 n94:9 0.0334
12 n94:10 0.0334
*RES
2 inst_343:A1 n94:10 0.0050
3 n94:1 n94 0.0011
4 n94:2 n94:1 0.0050
5 n94:2 n94:3 0.0010
6 n94:4 n94:3 0.0155
7 n94:5 n94:4 0.0050
8 n94:5 n94:6 0.0084
9 n94:7 n94:6 0.0050
10 n94:8 n94:7 0.0041
11 n94:9 n94:8 0.0050
12 n94:9 n94:10 0.0030
*END

*D_NET net_105 0.3826
*CONN
*I inst_29:ZN O
*I inst_33:B I
*CAP
1 inst_29:ZN 0.0178
2 inst_33:B 0.0166
3 net_105:1 0.0261
4 net_105:2 0.0204
5 net_105:3 0.0204
6 net_105:4 0.1245
7 net_105:5 0.1245
8 net_105:6 0.0162
9 net_105:7 0.0162
*RES
2 inst_29:ZN net_105:1 0.0021
3 inst_33:B net_105:7 0.0050
4 net_105:2 net_105:1 0.0050
5 net_105:3 net_105:2 0.0010
6 net_105:4 net_105:3 0.0050
7 net_105:4 net_105:5 0.0095
8 net_105:6 net_105:5 0.0050
9 net_105:6 net_105:7 0.0010
*END

*D_NET n543 3.7187
*CONN
*P n543 I
*I inst_287:A I
*I inst_90:A1 I
*I inst_143:A1 I
*I inst_95:A2 I
*I inst_145:A1 I
*I inst_146:A1 I
*I inst_148:A1 I
*I inst_149:A1 I
*I inst_151:A1 I
*I inst_152:A1 I
*I inst_245:S I
*I inst_157:A1 I
*I inst_158:A1 I
*I inst_160:A1 I
*I inst_161:A1 I
*I inst_162:A1 I
*I inst_165:A1 I
*I inst_214:A1 I
*CAP
1 n543 0.2368
2 inst_287:A 0.0166
3 inst_90:A1 0.0166
4 inst_143:A1 0.0166
5 inst_95:A2 0.0166
6 inst_145:A1 0.0166
7 inst_146:A1 0.0166
8 inst_148:A1 0.0166
9 inst_149:A1 0.0166
10 inst_151:A1 0.0166
11 inst_152:A1 0.0166
12 inst_245:S 0.0166
13 inst_157:A1 0.0166
14 inst_158:A1 0.0166
15 inst_160:A1 0.0166
16 inst_161:A1 0.0166
17 inst_162:A1 0.0166
18 inst_165:A1 0.0166
19 inst_214:A1 0.0166
20 n543:1 0.0844
21 n543:2 0.0870
22 n543:3 0.0178
23 n543:4 0.0460
24 n543:5 0.0520
25 n543:6 0.0319
26 n543:7 0.0319
27 n543:8 0.0319
28 n543:9 0.0441
29 n543:10 0.0274
30 n543:11 0.0432
31 n543:12 0.0429
32 n543:13 0.0764
33 n543:14 0.1139
34 n543:15 0.0652
35 n543:16 0.0323
36 n543:17 0.0608
37 n543:18 0.1075
38 n543:19 0.0613
39 n543:20 0.0339
40 n543:21 0.0697
41 n543:22 0.0721
42 n543:23 0.0318
43 n543:24 0.0332
44 n543:25 0.0714
45 n543:26 0.0711
46 n543:27 0.0552
47 n543:28 0.0978
48 n543:29 0.0499
49 n543:30 0.0449
50 n543:31 0.0586
51 n543:32 0.0252
52 n543:33 0.0684
53 n543:34 0.0684
54 n543:35 0.2709
55 n543:36 0.0379
56 n543:37 0.0484
57 n543:38 0.0484
58 n543:39 0.0341
59 n543:40 0.0340
60 n543:41 0.0388
61 n543:42 0.0167
62 n543:43 0.0167
63 n543:44 0.0531
64 n543:45 0.0531
65 n543:46 0.0410
66 n543:47 0.0483
67 n543:48 0.0188
68 n543:49 0.0268
69 n543:50 0.0179
70 n543:51 0.0179
71 n543:52 0.0162
72 n543:53 0.0226
73 n543:54 0.0226
74 n543:55 0.0162
75 n543:56 0.0162
76 n543:57 0.0658
77 n543:58 0.0312
78 n543:59 0.0157
79 n543:60 0.0157
80 n543:61 0.0242
81 n543:62 0.0242
82 n543:63 0.0127
83 n543:64 0.0127
84 n543:65 0.0481
85 n543:66 0.0242
86 n543:67 0.0204
87 n543:68 0.0161
88 n543:69 0.0460
*RES
2 n543 n543:35 0.0196
3 n543:1 inst_287:A 0.0050
4 n543:2 inst_165:A1 0.0050
5 n543:2 n543:1 0.0070
6 n543:3 n543:2 0.0010
7 n543:4 n543:3 0.0050
8 n543:4 n543:41 0.0041
9 n543:5 n543:4 0.0010
10 n543:5 n543:6 0.0050
11 n543:7 inst_214:A1 0.0050
12 n543:7 n543:6 0.0020
13 n543:8 inst_95:A2 0.0050
14 n543:9 n543:8 0.0025
15 n543:9 n543:10 0.0014
16 n543:10 inst_161:A1 0.0050
17 n543:11 n543:10 0.0050
18 n543:11 n543:12 0.0034
19 n543:13 n543:12 0.0010
20 n543:13 n543:14 0.0061
21 n543:14 n543:5 0.0034
22 n543:14 n543:51 0.0050
23 n543:15 inst_90:A1 0.0050
24 n543:15 n543:16 0.0015
25 n543:17 n543:16 0.0050
26 n543:18 n543:17 0.0034
27 n543:18 n543:54 0.0050
28 n543:19 n543:18 0.0034
29 n543:19 n543:67 0.0050
30 n543:20 n543:19 0.0010
31 n543:21 n543:20 0.0050
32 n543:22 n543:21 0.0050
33 n543:23 n543:22 0.0010
34 n543:24 inst_143:A1 0.0050
35 n543:24 n543:23 0.0015
36 n543:25 n543:24 0.0050
37 n543:26 n543:25 0.0047
38 n543:27 n543:26 0.0010
39 n543:28 n543:27 0.0061
40 n543:28 n543:56 0.0050
41 n543:29 n543:28 0.0027
42 n543:30 n543:29 0.0050
43 n543:31 inst_245:S 0.0050
44 n543:31 n543:30 0.0025
45 n543:32 n543:31 0.0015
46 n543:33 n543:32 0.0050
47 n543:34 n543:33 0.0065
48 n543:35 n543:34 0.0050
49 n543:35 n543:36 0.0025
50 n543:36 n543:37 0.0050
51 n543:38 n543:37 0.0050
52 n543:38 n543:39 0.0050
53 n543:39 n543:40 0.0015
54 n543:40 n543:68 0.0010
55 n543:40 n543:41 0.0050
56 n543:42 inst_157:A1 0.0050
57 n543:42 n543:43 0.0010
58 n543:44 n543:43 0.0050
59 n543:44 n543:45 0.0020
60 n543:46 n543:45 0.0050
61 n543:47 inst_152:A1 0.0050
62 n543:47 n543:46 0.0030
63 n543:48 n543:47 0.0010
64 n543:49 n543:20 0.0027
65 n543:49 n543:48 0.0050
66 n543:50 inst_158:A1 0.0050
67 n543:51 n543:50 0.0010
68 n543:52 inst_160:A1 0.0050
69 n543:52 n543:39 0.0010
70 n543:53 inst_145:A1 0.0050
71 n543:54 n543:53 0.0010
72 n543:55 inst_146:A1 0.0050
73 n543:56 n543:55 0.0010
74 n543:57 inst_148:A1 0.0050
75 n543:57 n543:58 0.0015
76 n543:59 n543:58 0.0050
77 n543:59 n543:60 0.0010
78 n543:61 n543:60 0.0050
79 n543:61 n543:62 0.0010
80 n543:63 n543:62 0.0050
81 n543:63 n543:64 0.0010
82 n543:65 n543:15 0.0020
83 n543:65 n543:64 0.0050
84 n543:66 inst_149:A1 0.0050
85 n543:67 n543:66 0.0010
86 n543:68 inst_162:A1 0.0050
87 n543:69 inst_151:A1 0.0050
88 n543:69 n543:57 0.0025
*END

*D_NET n61 0.4777
*CONN
*P n61 I
*I inst_201:A1 I
*CAP
1 n61 0.1295
2 inst_201:A1 0.0166
3 n61:1 0.1334
4 n61:2 0.0953
5 n61:3 0.1028
*RES
2 n61 n61:1 0.0111
3 inst_201:A1 n61:3 0.0050
4 n61:2 n61:1 0.0010
5 n61:2 n61:3 0.0105
*END

*D_NET n53 0.5613
*CONN
*P n53 I
*I inst_203:A1 I
*CAP
1 n53 0.2209
2 inst_203:A1 0.0166
3 n53:1 0.2323
4 n53:2 0.0203
5 n53:3 0.0203
6 n53:4 0.0254
7 n53:5 0.0254
*RES
2 n53 n53:1 0.0191
3 inst_203:A1 n53:5 0.0050
4 n53:2 n53:1 0.0050
5 n53:2 n53:3 0.0018
6 n53:4 n53:3 0.0050
7 n53:4 n53:5 0.0025
*END

*D_NET net_129 2.4945
*CONN
*I inst_171:ZN O
*I inst_99:A2 I
*I inst_336:A2 I
*I inst_259:B I
*I inst_44:A I
*CAP
1 inst_171:ZN 0.0400
2 inst_99:A2 0.0166
3 inst_336:A2 0.0166
4 inst_259:B 0.0166
5 inst_44:A 0.0166
6 net_129:1 0.0141
7 net_129:2 0.0603
8 net_129:3 0.0539
9 net_129:4 0.0901
10 net_129:5 0.0901
11 net_129:6 0.0510
12 net_129:7 0.0510
13 net_129:8 0.0178
14 net_129:9 0.0178
15 net_129:10 0.0161
16 net_129:11 0.0785
17 net_129:12 0.0265
18 net_129:13 0.0265
19 net_129:14 0.0474
20 net_129:15 0.0474
21 net_129:16 0.0776
22 net_129:17 0.0164
23 net_129:18 0.0164
24 net_129:19 0.0297
25 net_129:20 0.0297
26 net_129:21 0.0152
27 net_129:22 0.0317
28 net_129:23 0.0178
29 net_129:24 0.0178
30 net_129:25 0.0119
31 net_129:26 0.0119
32 net_129:27 0.0177
33 net_129:28 0.0141
34 net_129:29 0.3523
35 net_129:30 0.3523
36 net_129:31 0.0939
37 net_129:32 0.1001
38 net_129:33 0.1819
39 net_129:34 0.1757
40 net_129:35 0.0177
41 net_129:36 0.0589
42 net_129:37 0.0589
*RES
2 net_129:1 inst_99:A2 0.0050
3 net_129:2 net_129:1 0.0010
4 net_129:3 net_129:2 0.0030
5 net_129:3 net_129:4 0.0050
6 net_129:5 net_129:4 0.0034
7 net_129:5 net_129:6 0.0050
8 net_129:7 net_129:6 0.0011
9 net_129:7 net_129:8 0.0050
10 net_129:9 net_129:8 0.0010
11 net_129:9 net_129:10 0.0050
12 net_129:11 inst_336:A2 0.0050
13 net_129:11 net_129:10 0.0010
14 net_129:12 inst_259:B 0.0050
15 net_129:12 net_129:13 0.0020
16 net_129:14 net_129:13 0.0050
17 net_129:15 net_129:14 0.0061
18 net_129:16 net_129:11 0.0070
19 net_129:16 net_129:15 0.0050
20 net_129:17 inst_44:A 0.0050
21 net_129:17 net_129:18 0.0010
22 net_129:19 net_129:18 0.0050
23 net_129:19 net_129:20 0.0020
24 net_129:21 net_129:20 0.0050
25 net_129:22 inst_171:ZN 0.0031
26 net_129:22 net_129:21 0.0050
27 net_129:23 inst_171:ZN 0.0050
28 net_129:24 net_129:23 0.0010
29 net_129:25 net_129:24 0.0050
30 net_129:25 net_129:26 0.0010
31 net_129:27 net_129:26 0.0050
32 net_129:28 net_129:27 0.0030
33 net_129:29 net_129:28 0.0030
34 net_129:30 net_129:29 0.0130
35 net_129:31 net_129:30 0.0030
36 net_129:32 net_129:31 0.0034
37 net_129:33 net_129:32 0.0010
38 net_129:34 net_129:33 0.0063
39 net_129:35 net_129:34 0.0030
40 net_129:36 net_129:35 0.0050
41 net_129:37 net_129:2 0.0050
42 net_129:37 net_129:36 0.0026
*END

*D_NET net_119 0.4531
*CONN
*I inst_256:Z O
*I inst_43:B I
*CAP
1 inst_256:Z 0.0080
2 inst_43:B 0.0166
3 net_119:1 0.0163
4 net_119:2 0.0208
5 net_119:3 0.0208
6 net_119:4 0.0257
7 net_119:5 0.0257
8 net_119:6 0.0878
9 net_119:7 0.0878
10 net_119:8 0.0111
11 net_119:9 0.0111
12 net_119:10 0.0608
13 net_119:11 0.0608
*RES
2 inst_256:Z net_119:1 0.0010
3 inst_43:B net_119:11 0.0050
4 net_119:2 net_119:1 0.0050
5 net_119:2 net_119:3 0.0010
6 net_119:4 net_119:3 0.0050
7 net_119:5 net_119:4 0.0017
8 net_119:6 net_119:5 0.0050
9 net_119:6 net_119:7 0.0023
10 net_119:8 net_119:7 0.0050
11 net_119:9 net_119:8 0.0010
12 net_119:10 net_119:9 0.0050
13 net_119:10 net_119:11 0.0080
*END

*D_NET net_98 1.2585
*CONN
*I inst_221:ZN O
*I inst_134:A3 I
*CAP
1 inst_221:ZN 0.0099
2 inst_134:A3 0.0166
3 net_98:1 0.0182
4 net_98:2 0.0189
5 net_98:3 0.0189
6 net_98:4 0.3066
7 net_98:5 0.3066
8 net_98:6 0.1601
9 net_98:7 0.1601
10 net_98:8 0.0842
11 net_98:9 0.0842
12 net_98:10 0.0371
13 net_98:11 0.0371
*RES
2 inst_221:ZN net_98:1 0.0010
3 inst_134:A3 net_98:11 0.0050
4 net_98:2 net_98:1 0.0050
5 net_98:2 net_98:3 0.0010
6 net_98:4 net_98:3 0.0050
7 net_98:4 net_98:5 0.0205
8 net_98:6 net_98:5 0.0050
9 net_98:6 net_98:7 0.0036
10 net_98:8 net_98:7 0.0050
11 net_98:8 net_98:9 0.0046
12 net_98:10 net_98:9 0.0050
13 net_98:10 net_98:11 0.0030
*END

*D_NET n1341 2.0301
*CONN
*P n1341 I
*I inst_6:B I
*I inst_15:A I
*I inst_276:B I
*CAP
1 n1341 0.2085
2 inst_6:B 0.0166
3 inst_15:A 0.0166
4 inst_276:B 0.0166
5 n1341:1 0.0164
6 n1341:2 0.0164
7 n1341:3 0.0681
8 n1341:4 0.0367
9 n1341:5 0.0989
10 n1341:6 0.1073
11 n1341:7 0.2154
12 n1341:8 0.2070
13 n1341:9 0.0133
14 n1341:10 0.0133
15 n1341:11 0.0223
16 n1341:12 0.0223
17 n1341:13 0.0307
18 n1341:14 0.0307
19 n1341:15 0.0259
20 n1341:16 0.0292
21 n1341:17 0.0110
22 n1341:18 0.0210
23 n1341:19 0.0210
24 n1341:20 0.0391
25 n1341:21 0.2199
26 n1341:22 0.0090
27 n1341:23 0.0090
28 n1341:24 0.0177
29 n1341:25 0.0141
30 n1341:26 0.1476
31 n1341:27 0.1476
32 n1341:28 0.0141
33 n1341:29 0.0736
34 n1341:30 0.0736
*RES
2 n1341:1 inst_6:B 0.0050
3 n1341:1 n1341:2 0.0010
4 n1341:3 n1341:2 0.0050
5 n1341:3 n1341:20 0.0034
6 n1341:4 n1341:3 0.0023
7 n1341:4 n1341:5 0.0050
8 n1341:6 n1341:5 0.0027
9 n1341:7 n1341:6 0.0010
10 n1341:8 n1341:7 0.0069
11 n1341:8 n1341:9 0.0050
12 n1341:9 n1341:10 0.0010
13 n1341:10 n1341:11 0.0050
14 n1341:12 inst_276:B 0.0050
15 n1341:12 n1341:11 0.0015
16 n1341:13 inst_15:A 0.0050
17 n1341:14 n1341:13 0.0020
18 n1341:15 n1341:14 0.0050
19 n1341:16 n1341:15 0.0017
20 n1341:17 n1341:16 0.0010
21 n1341:17 n1341:18 0.0050
22 n1341:19 n1341:18 0.0020
23 n1341:19 n1341:20 0.0050
24 n1341:21 n1341 0.0175
25 n1341:22 n1341:21 0.0050
26 n1341:22 n1341:23 0.0010
27 n1341:24 n1341:23 0.0050
28 n1341:25 n1341:24 0.0030
29 n1341:26 n1341:25 0.0030
30 n1341:27 n1341:26 0.0063
31 n1341:28 n1341:27 0.0030
32 n1341:29 n1341:28 0.0030
33 n1341:30 n1341:16 0.0050
34 n1341:30 n1341:29 0.0023
*END

*D_NET net_12 0.2233
*CONN
*I inst_7:Z O
*I inst_30:A I
*CAP
1 inst_7:Z 0.0166
2 inst_30:A 0.0166
3 net_12:1 0.0288
4 net_12:2 0.0311
5 net_12:3 0.0662
6 net_12:4 0.0639
*RES
2 inst_30:A net_12:4 0.0050
3 net_12:1 inst_7:Z 0.0050
4 net_12:1 net_12:2 0.0020
5 net_12:3 net_12:2 0.0010
6 net_12:3 net_12:4 0.0050
*END

*D_NET net_151 0.8702
*CONN
*I inst_264:Z O
*I inst_101:A2 I
*I inst_233:A2 I
*CAP
1 inst_264:Z 0.0076
2 inst_101:A2 0.0166
3 inst_233:A2 0.0166
4 net_151:1 0.0732
5 net_151:2 0.0694
6 net_151:3 0.0159
7 net_151:4 0.0152
8 net_151:5 0.0746
9 net_151:6 0.0746
10 net_151:7 0.2332
11 net_151:8 0.2332
12 net_151:9 0.0201
13 net_151:10 0.0201
*RES
2 net_151:1 inst_233:A2 0.0050
3 net_151:2 inst_101:A2 0.0050
4 net_151:2 net_151:1 0.0045
5 net_151:3 inst_264:Z 0.0010
6 net_151:4 net_151:3 0.0050
7 net_151:5 net_151:4 0.0050
8 net_151:6 net_151:5 0.0059
9 net_151:7 net_151:6 0.0050
10 net_151:8 net_151:7 0.0076
11 net_151:9 net_151:8 0.0050
12 net_151:9 net_151:10 0.0011
13 net_151:10 net_151:1 0.0050
*END

*D_NET net_53 0.6965
*CONN
*I inst_284:ZN O
*I inst_95:A1 I
*I inst_158:A3 I
*I inst_160:A3 I
*I inst_161:A3 I
*I inst_162:A3 I
*I inst_165:A3 I
*CAP
1 inst_284:ZN 0.0275
2 inst_95:A1 0.0166
3 inst_158:A3 0.0146
4 inst_160:A3 0.0166
5 inst_161:A3 0.0073
6 inst_162:A3 0.0312
7 inst_165:A3 0.0270
8 net_53:1 0.0165
9 net_53:2 0.0165
10 net_53:3 0.0296
11 net_53:4 0.0296
12 net_53:5 0.0165
13 net_53:6 0.0165
14 net_53:7 0.0160
15 net_53:8 0.0152
16 net_53:9 0.1018
17 net_53:10 0.1326
18 net_53:11 0.0384
19 net_53:12 0.0152
20 net_53:13 0.0348
21 net_53:14 0.0386
22 net_53:15 0.0229
23 net_53:16 0.0152
*RES
2 inst_284:ZN net_53:8 0.0050
3 inst_158:A3 net_53:15 0.0021
4 inst_161:A3 inst_284:ZN 0.0010
5 inst_162:A3 net_53:13 0.0050
6 inst_165:A3 inst_162:A3 0.0021
7 net_53:1 inst_95:A1 0.0050
8 net_53:1 net_53:2 0.0010
9 net_53:3 net_53:2 0.0050
10 net_53:3 net_53:4 0.0034
11 net_53:5 net_53:4 0.0050
12 net_53:6 net_53:5 0.0010
13 net_53:7 inst_284:ZN 0.0010
14 net_53:7 net_53:6 0.0050
15 net_53:8 net_53:9 0.0050
16 net_53:9 net_53:10 0.0102
17 net_53:10 net_53:11 0.0027
18 net_53:10 net_53:16 0.0050
19 net_53:11 net_53:12 0.0050
20 net_53:12 inst_165:A3 0.0050
21 net_53:14 inst_160:A3 0.0050
22 net_53:14 net_53:13 0.0025
23 net_53:16 net_53:15 0.0050
*END

*D_NET net_93 0.6017
*CONN
*I inst_120:ZN O
*I inst_216:A2 I
*I inst_97:A2 I
*CAP
1 inst_120:ZN 0.0166
2 inst_216:A2 0.0166
3 inst_97:A2 0.0166
4 net_93:1 0.0221
5 net_93:2 0.0221
6 net_93:3 0.0395
7 net_93:4 0.0395
8 net_93:5 0.0998
9 net_93:6 0.0730
10 net_93:7 0.0295
11 net_93:8 0.0295
12 net_93:9 0.0794
13 net_93:10 0.0794
14 net_93:11 0.0382
*RES
2 net_93:1 inst_216:A2 0.0050
3 net_93:2 net_93:1 0.0010
4 net_93:3 net_93:2 0.0050
5 net_93:3 net_93:4 0.0047
6 net_93:5 net_93:4 0.0050
7 net_93:5 net_93:6 0.0050
8 net_93:6 net_93:7 0.0050
9 net_93:8 net_93:7 0.0020
10 net_93:8 net_93:9 0.0050
11 net_93:9 net_93:10 0.0105
12 net_93:10 inst_97:A2 0.0050
13 net_93:11 inst_120:ZN 0.0050
14 net_93:11 net_93:5 0.0020
*END

*D_NET net_210 0.5873
*CONN
*I inst_275:Z O
*I inst_56:A I
*I inst_80:A3 I
*CAP
1 inst_275:Z 0.0166
2 inst_56:A 0.0166
3 inst_80:A3 0.0166
4 net_210:1 0.0260
5 net_210:2 0.0260
6 net_210:3 0.1030
7 net_210:4 0.1030
8 net_210:5 0.0615
9 net_210:6 0.0171
10 net_210:7 0.0261
11 net_210:8 0.0261
12 net_210:9 0.0483
13 net_210:10 0.0483
14 net_210:11 0.0520
*RES
2 net_210:1 inst_56:A 0.0050
3 net_210:2 net_210:1 0.0015
4 net_210:3 net_210:2 0.0050
5 net_210:4 net_210:3 0.0122
6 net_210:5 net_210:4 0.0050
7 net_210:5 net_210:6 0.0010
8 net_210:6 net_210:7 0.0050
9 net_210:8 net_210:7 0.0020
10 net_210:8 net_210:9 0.0050
11 net_210:9 net_210:10 0.0055
12 net_210:10 inst_80:A3 0.0050
13 net_210:11 inst_275:Z 0.0050
14 net_210:11 net_210:5 0.0065
*END

*D_NET n63 0.7793
*CONN
*P n63 I
*I inst_199:A1 I
*CAP
1 n63 0.0215
2 inst_199:A1 0.0166
3 n63:1 0.0329
4 n63:2 0.0081
5 n63:3 0.0081
6 n63:4 0.2500
7 n63:5 0.2500
8 n63:6 0.0735
9 n63:7 0.0735
10 n63:8 0.0226
11 n63:9 0.0226
*RES
2 n63 n63:1 0.0021
3 inst_199:A1 n63:9 0.0050
4 n63:2 n63:1 0.0050
5 n63:3 n63:2 0.0010
6 n63:4 n63:3 0.0050
7 n63:4 n63:5 0.0088
8 n63:6 n63:5 0.0050
9 n63:7 n63:6 0.0036
10 n63:8 n63:7 0.0050
11 n63:8 n63:9 0.0010
*END

*D_NET n220 0.5868
*CONN
*I inst_286:ZN O
*P n220 O
*CAP
1 n220 0.0156
2 inst_286:ZN 0.0139
3 n220:1 0.0222
4 n220:2 0.0152
5 n220:3 0.2353
6 n220:4 0.2407
7 n220:5 0.0206
8 n220:6 0.0232
*RES
2 inst_286:ZN n220:1 0.0021
3 n220:2 n220:1 0.0050
4 n220:3 n220:2 0.0050
5 n220:3 n220:4 0.0197
6 n220:4 n220:5 0.0010
7 n220:6 n220 0.0011
8 n220:6 n220:5 0.0050
*END

*D_NET net_168 0.7487
*CONN
*I inst_103:ZN O
*I inst_76:A3 I
*CAP
1 inst_103:ZN 0.0166
2 inst_76:A3 0.0166
3 net_168:1 0.0417
4 net_168:2 0.0417
5 net_168:3 0.0158
6 net_168:4 0.0158
7 net_168:5 0.1895
8 net_168:6 0.1895
9 net_168:7 0.0292
10 net_168:8 0.0292
11 net_168:9 0.0814
12 net_168:10 0.0814
*RES
2 inst_76:A3 net_168:10 0.0050
3 net_168:1 inst_103:ZN 0.0050
4 net_168:1 net_168:2 0.0030
5 net_168:3 net_168:2 0.0050
6 net_168:4 net_168:3 0.0010
7 net_168:5 net_168:4 0.0050
8 net_168:5 net_168:6 0.0050
9 net_168:7 net_168:6 0.0050
10 net_168:7 net_168:8 0.0028
11 net_168:9 net_168:8 0.0050
12 net_168:9 net_168:10 0.0080
*END

*D_NET n136 0.6506
*CONN
*P n136 I
*I inst_185:A1 I
*CAP
1 n136 0.2204
2 inst_185:A1 0.0166
3 n136:1 0.2318
4 n136:2 0.0483
5 n136:3 0.0483
6 n136:4 0.0425
7 n136:5 0.0425
*RES
2 inst_185:A1 n136:5 0.0050
3 n136:1 n136 0.0185
4 n136:2 n136:1 0.0050
5 n136:3 n136:2 0.0040
6 n136:4 n136:3 0.0050
7 n136:5 n136:4 0.0030
*END

*D_NET n1961 2.8355
*CONN
*P n1961 I
*I inst_25:B I
*I inst_16:A I
*I inst_275:B I
*CAP
1 n1961 0.0010
2 inst_25:B 0.0166
3 inst_16:A 0.0166
4 inst_275:B 0.0166
5 n1961:1 0.2222
6 n1961:2 0.0167
7 n1961:3 0.0141
8 n1961:4 0.0141
9 n1961:5 0.0161
10 n1961:6 0.0161
11 n1961:7 0.0141
12 n1961:8 0.4003
13 n1961:9 0.4003
14 n1961:10 0.1781
15 n1961:11 0.1781
16 n1961:12 0.0177
17 n1961:13 0.0590
18 n1961:14 0.1595
19 n1961:15 0.0171
20 n1961:16 0.0171
21 n1961:17 0.0152
22 n1961:18 0.1081
23 n1961:19 0.0124
24 n1961:20 0.0335
25 n1961:21 0.0335
26 n1961:22 0.0210
27 n1961:23 0.0172
28 n1961:24 0.2913
29 n1961:25 0.2913
30 n1961:26 0.2207
*RES
2 n1961:1 inst_25:B 0.0050
3 n1961:1 n1961:26 0.0185
4 n1961:2 n1961:1 0.0010
5 n1961:2 n1961:3 0.0050
6 n1961:4 n1961:3 0.0010
7 n1961:4 n1961:5 0.0050
8 n1961:6 n1961:5 0.0010
9 n1961:6 n1961:7 0.0030
10 n1961:7 n1961:8 0.0030
11 n1961:9 n1961:8 0.0164
12 n1961:9 n1961:10 0.0030
13 n1961:11 n1961:10 0.0059
14 n1961:11 n1961:12 0.0030
15 n1961:12 n1961:13 0.0050
16 n1961:14 n1961:13 0.0040
17 n1961:14 n1961:15 0.0050
18 n1961:16 inst_275:B 0.0050
19 n1961:16 n1961:15 0.0010
20 n1961:17 inst_16:A 0.0050
21 n1961:18 n1961:14 0.0081
22 n1961:18 n1961:17 0.0050
23 n1961:19 n1961 0.0010
24 n1961:20 n1961:19 0.0050
25 n1961:21 n1961:20 0.0037
26 n1961:22 n1961:21 0.0050
27 n1961:23 n1961:22 0.0010
28 n1961:24 n1961:23 0.0050
29 n1961:25 n1961:24 0.0224
30 n1961:26 n1961:25 0.0050
*END

*D_NET n27 0.9259
*CONN
*P n27 I
*I inst_254:A I
*CAP
1 n27 0.0348
2 inst_254:A 0.0166
3 n27:1 0.0462
4 n27:2 0.1630
5 n27:3 0.1630
6 n27:4 0.2512
7 n27:5 0.2512
*RES
2 n27 n27:1 0.0031
3 inst_254:A n27:5 0.0050
4 n27:2 n27:1 0.0050
5 n27:2 n27:3 0.0145
6 n27:4 n27:3 0.0050
7 n27:4 n27:5 0.0170
*END

*D_NET n113 0.6107
*CONN
*P n113 I
*I inst_213:A1 I
*CAP
1 n113 0.1769
2 inst_213:A1 0.0166
3 n113:1 0.1883
4 n113:2 0.0176
5 n113:3 0.0176
6 n113:4 0.0869
7 n113:5 0.0892
8 n113:6 0.0175
*RES
2 inst_213:A1 n113:6 0.0050
3 n113:1 n113 0.0145
4 n113:2 n113:1 0.0050
5 n113:2 n113:3 0.0011
6 n113:4 n113:3 0.0050
7 n113:5 n113:4 0.0095
8 n113:5 n113:6 0.0010
*END

*D_NET net_259 0.2377
*CONN
*I inst_312:ZN O
*I inst_79:A3 I
*I inst_80:A2 I
*CAP
1 inst_312:ZN 0.0146
2 inst_79:A3 0.0166
3 inst_80:A2 0.0166
4 net_259:1 0.0489
5 net_259:2 0.0451
6 net_259:3 0.0289
7 net_259:4 0.0289
8 net_259:5 0.0152
9 net_259:6 0.0229
*RES
2 net_259:1 inst_79:A3 0.0050
3 net_259:1 net_259:2 0.0035
4 net_259:2 net_259:3 0.0050
5 net_259:4 net_259:3 0.0020
6 net_259:4 net_259:5 0.0050
7 net_259:5 inst_80:A2 0.0050
8 net_259:6 inst_312:ZN 0.0021
9 net_259:6 net_259:2 0.0050
*END

*D_NET net_269 0.7460
*CONN
*I inst_23:Z O
*I inst_342:A2 I
*I inst_180:A1 I
*I inst_140:A3 I
*CAP
1 inst_23:Z 0.0166
2 inst_342:A2 0.0166
3 inst_180:A1 0.0166
4 inst_140:A3 0.0166
5 net_269:1 0.0181
6 net_269:2 0.0181
7 net_269:3 0.0696
8 net_269:4 0.0257
9 net_269:5 0.0392
10 net_269:6 0.0392
11 net_269:7 0.0684
12 net_269:8 0.0161
13 net_269:9 0.0716
14 net_269:10 0.0713
15 net_269:11 0.0513
16 net_269:12 0.0152
17 net_269:13 0.0357
18 net_269:14 0.0395
19 net_269:15 0.0180
20 net_269:16 0.0203
21 net_269:17 0.0622
*RES
2 net_269:1 inst_180:A1 0.0050
3 net_269:1 net_269:2 0.0010
4 net_269:3 net_269:2 0.0050
5 net_269:3 net_269:11 0.0034
6 net_269:4 net_269:3 0.0020
7 net_269:4 net_269:5 0.0050
8 net_269:5 net_269:6 0.0035
9 net_269:6 inst_342:A2 0.0050
10 net_269:7 inst_140:A3 0.0050
11 net_269:7 net_269:8 0.0010
12 net_269:8 net_269:9 0.0050
13 net_269:10 net_269:9 0.0081
14 net_269:11 net_269:10 0.0010
15 net_269:12 inst_23:Z 0.0050
16 net_269:13 net_269:12 0.0050
17 net_269:14 net_269:13 0.0020
18 net_269:15 net_269:14 0.0050
19 net_269:15 net_269:16 0.0010
20 net_269:17 net_269:7 0.0045
21 net_269:17 net_269:16 0.0010
*END

*D_NET net_127 0.2238
*CONN
*I inst_36:ZN O
*I inst_44:B I
*CAP
1 inst_36:ZN 0.0166
2 inst_44:B 0.0166
3 net_127:1 0.0239
4 net_127:2 0.0277
5 net_127:3 0.0264
6 net_127:4 0.0264
7 net_127:5 0.0431
8 net_127:6 0.0431
*RES
2 inst_44:B net_127:6 0.0050
3 net_127:1 inst_36:ZN 0.0050
4 net_127:1 net_127:2 0.0010
5 net_127:3 net_127:2 0.0050
6 net_127:3 net_127:4 0.0014
7 net_127:5 net_127:4 0.0050
8 net_127:5 net_127:6 0.0039
*END

*D_NET n74 1.2225
*CONN
*P n74 I
*I inst_157:A3 I
*CAP
1 n74 0.0488
2 inst_157:A3 0.0162
3 n74:1 0.0602
4 n74:2 0.0237
5 n74:3 0.0237
6 n74:4 0.0177
7 n74:5 0.1788
8 n74:6 0.1788
9 n74:7 0.2735
10 n74:8 0.2735
11 n74:9 0.0141
12 n74:10 0.0159
13 n74:11 0.0159
14 n74:12 0.0117
15 n74:13 0.0117
16 n74:14 0.0169
17 n74:15 0.0169
18 n74:16 0.0245
*RES
2 n74 n74:1 0.0041
3 inst_157:A3 n74:16 0.0021
4 n74:2 n74:1 0.0050
5 n74:3 n74:2 0.0014
6 n74:4 n74:3 0.0050
7 n74:5 n74:4 0.0030
8 n74:6 n74:5 0.0071
9 n74:7 n74:6 0.0030
10 n74:7 n74:8 0.0122
11 n74:9 n74:8 0.0030
12 n74:10 n74:9 0.0030
13 n74:10 n74:11 0.0010
14 n74:12 n74:11 0.0050
15 n74:13 n74:12 0.0010
16 n74:14 n74:13 0.0050
17 n74:14 n74:15 0.0010
18 n74:16 n74:15 0.0050
*END

*D_NET n391 0.8090
*CONN
*I inst_318:Z O
*P n391 O
*CAP
1 n391 0.0156
2 inst_318:Z 0.0166
3 n391:1 0.1556
4 n391:2 0.1556
5 n391:3 0.2116
6 n391:4 0.2136
7 n391:5 0.0172
8 n391:6 0.0232
*RES
2 n391:1 inst_318:Z 0.0050
3 n391:1 n391:2 0.0100
4 n391:3 n391:2 0.0050
5 n391:3 n391:4 0.0183
6 n391:4 n391:5 0.0010
7 n391:6 n391 0.0011
8 n391:6 n391:5 0.0050
*END

*D_NET n1 2.9560
*CONN
*P n1 I
*I inst_182:A1 I
*CAP
1 n1 0.0010
2 inst_182:A1 0.0166
3 n1:1 0.0109
4 n1:2 0.0175
5 n1:3 0.0314
6 n1:4 0.0850
7 n1:5 0.0726
8 n1:6 1.0273
9 n1:7 1.0273
10 n1:8 0.2960
11 n1:9 0.2960
12 n1:10 0.0391
13 n1:11 0.0353
*RES
2 inst_182:A1 n1:11 0.0050
3 n1:1 n1 0.0010
4 n1:1 n1:2 0.0010
5 n1:3 n1:2 0.0050
6 n1:4 n1:3 0.0014
7 n1:4 n1:5 0.0050
8 n1:6 n1:5 0.0050
9 n1:7 n1:6 0.0338
10 n1:8 n1:7 0.0050
11 n1:8 n1:9 0.0235
12 n1:10 n1:9 0.0050
13 n1:11 n1:10 0.0020
*END

*D_NET n14 0.6069
*CONN
*P n14 I
*I inst_332:A2 I
*CAP
1 n14 0.2387
2 inst_332:A2 0.0166
3 n14:1 0.2447
4 n14:2 0.0261
5 n14:3 0.0300
6 n14:4 0.0266
7 n14:5 0.0243
*RES
2 inst_332:A2 n14:5 0.0050
3 n14:1 n14 0.0205
4 n14:1 n14:2 0.0010
5 n14:3 n14:2 0.0020
6 n14:3 n14:4 0.0010
7 n14:5 n14:4 0.0025
*END

*D_NET net_76 0.6402
*CONN
*I inst_204:ZN O
*I inst_130:A4 I
*CAP
1 inst_204:ZN 0.0076
2 inst_130:A4 0.0166
3 net_76:1 0.0159
4 net_76:2 0.1009
5 net_76:3 0.1047
6 net_76:4 0.0100
7 net_76:5 0.0100
8 net_76:6 0.1630
9 net_76:7 0.1630
10 net_76:8 0.0167
11 net_76:9 0.0167
12 net_76:10 0.0152
*RES
2 inst_130:A4 net_76:10 0.0050
3 net_76:1 inst_204:ZN 0.0010
4 net_76:2 net_76:1 0.0050
5 net_76:2 net_76:3 0.0070
6 net_76:4 net_76:3 0.0050
7 net_76:5 net_76:4 0.0010