*SPEF "IEEE 1481-1998"
*DESIGN "changes"
*DATE "Tue Dec 02 20:44:44 2014"
*VENDOR "TAU 2015 Contest"
*PROGRAM "Benchmark Parasitic Generator"
*VERSION "0.0"
*DESIGN_FLOW "NETLIST_TYPE_VERILOG"
*DIVIDER /
*DELIMITER :
*BUS_DELIMITER [ ]
*T_UNIT 1 PS
*C_UNIT 1 FF
*R_UNIT 1 KOHM
*L_UNIT 1 UH

*D_NET n2678 1.7439
*CONN
*I TAUGATE_436:Z O
*I inst_10:A I
*CAP
1 TAUGATE_436:Z 0.2611
2 n2678:1 0.4098
3 n2678:2 0.5009
4 n2678:3 0.2843
5 inst_10:A 0.2878
*RES
2 TAUGATE_436:Z n2678:1 0.1659
3 n2678:1 n2678:2 0.2742
4 n2678:2 n2678:3 0.3494
5 n2678:3 inst_10:A 0.1485
*END

*D_NET n319 3.1207
*CONN
*I TAUGATE_107:Z O
*P n319 O
*I inst_135:A4 I
*I inst_136:A4 I
*CAP
1 TAUGATE_107:Z 0.2110
2 n319:1 0.3070
3 n319:2 0.3583
4 n319:3 0.1395
5 n319:4 0.0646
6 n319:5 0.0794
7 inst_135:A4 0.2161
8 n319:6 0.2440
9 n319:7 0.0332
10 n319 0.0406
11 n319:8 0.3706
12 n319:9 0.0740
13 n319:10 0.4871
14 inst_136:A4 0.4951
*RES
2 TAUGATE_107:Z n319:1 0.1614
3 n319:1 n319:2 0.3312
4 n319:2 n319:3 0.3755
5 n319:3 n319:4 0.4644
6 n319:4 n319:5 0.4559
7 n319:5 inst_135:A4 0.4050
8 n319:2 n319:6 0.2732
9 n319:6 n319:7 0.0073
10 n319:7 n319 0.1308
11 n319:2 n319:8 0.4125
12 n319:8 n319:9 0.0565
13 n319:9 n319:10 0.1285
14 n319:10 inst_136:A4 0.0292
*END

*D_NET net_215 2.3577
*CONN
*I TAUGATE_592:Z O
*I inst_77:A3 I
*CAP
1 TAUGATE_592:Z 0.4507
2 net_215:1 0.3995
3 net_215:2 0.3845
4 net_215:3 0.4708
5 net_215:4 0.3056
6 inst_77:A3 0.3464
*RES
2 TAUGATE_592:Z net_215:1 0.0305
3 net_215:1 net_215:2 0.2383
4 net_215:2 net_215:3 0.4020
5 net_215:3 net_215:4 0.2529
6 net_215:4 inst_77:A3 0.2665
*END

*D_NET TAUNET_275 0.9086
*CONN
*I inst_16:Z O
*I TAUGATE_275:A I
*CAP
1 inst_16:Z 0.1977
2 TAUNET_275:1 0.3276
3 TAUGATE_275:A 0.3833
*RES
2 inst_16:Z TAUNET_275:1 0.3292
3 TAUNET_275:1 TAUGATE_275:A 0.0716
*END

*D_NET TAUNET_114 1.3846
*CONN
*P n1976 I
*I TAUGATE_114:A I
*CAP
1 n1976 0.1922
2 TAUNET_114:1 0.1322
3 TAUNET_114:2 0.1905
4 TAUNET_114:3 0.4017
5 TAUGATE_114:A 0.4680
*RES
2 n1976 TAUNET_114:1 0.2976
3 TAUNET_114:1 TAUNET_114:2 0.2331
4 TAUNET_114:2 TAUNET_114:3 0.2927
5 TAUNET_114:3 TAUGATE_114:A 0.3943
*END

*D_NET n1971 3.3832
*CONN
*I TAUGATE_386:Z O
*I inst_24:B I
*I inst_45:B I
*I inst_238:A1 I
*CAP
1 TAUGATE_386:Z 0.1955
2 n1971:1 0.4889
3 n1971:2 0.0703
4 inst_45:B 0.3298
5 n1971:3 0.3990
6 inst_24:B 0.4035
7 n1971:4 0.4976
8 n1971:5 0.3591
9 n1971:6 0.2780
10 n1971:7 0.2022
11 inst_238:A1 0.1593
*RES
2 TAUGATE_386:Z n1971:1 0.4131
3 n1971:1 n1971:2 0.3310
4 n1971:2 inst_45:B 0.2621
5 n1971:1 n1971:3 0.0219
6 n1971:3 inst_24:B 0.0830
7 n1971:1 n1971:4 0.4382
8 n1971:4 n1971:5 0.3498
9 n1971:5 n1971:6 0.4055
10 n1971:6 n1971:7 0.4519
11 n1971:7 inst_238:A1 0.4658
*END

*D_NET net_54 1.1222
*CONN
*I TAUGATE_364:Z O
*I inst_128:A3 I
*CAP
1 TAUGATE_364:Z 0.4019
2 net_54:1 0.2503
3 inst_128:A3 0.4700
*RES
2 TAUGATE_364:Z net_54:1 0.3789
3 net_54:1 inst_128:A3 0.3545
*END

*D_NET n543 16.6724
*CONN
*I TAUGATE_440:Z O
*I inst_145:A1 I
*I inst_214:A1 I
*I inst_160:A1 I
*I inst_162:A1 I
*I inst_148:A1 I
*I inst_287:A I
*I inst_151:A1 I
*I inst_158:A1 I
*I inst_245:S I
*I inst_90:A1 I
*I inst_95:A2 I
*I inst_157:A1 I
*I inst_146:A1 I
*I inst_165:A1 I
*I inst_161:A1 I
*I inst_143:A1 I
*I inst_152:A1 I
*I inst_149:A1 I
*CAP
1 TAUGATE_440:Z 0.4316
2 n543:1 0.4734
3 n543:2 0.0376
4 inst_162:A1 0.0972
5 n543:3 0.3840
6 n543:4 0.2434
7 inst_214:A1 0.3726
8 n543:5 0.4443
9 n543:6 0.1288
10 inst_160:A1 0.3022
11 n543:7 0.4814
12 n543:8 0.1341
13 n543:9 0.3915
14 n543:10 0.0282
15 inst_145:A1 0.3089
16 n543:11 0.2288
17 n543:12 0.0666
18 n543:13 0.3854
19 n543:14 0.3580
20 inst_148:A1 0.3774
21 n543:15 0.3530
22 inst_287:A 0.1128
23 n543:16 0.3290
24 n543:17 0.1620
25 inst_151:A1 0.0029
26 n543:18 0.1392
27 inst_158:A1 0.1891
28 n543:19 0.0649
29 n543:20 0.0510
30 n543:21 0.1600
31 n543:22 0.1748
32 n543:23 0.4787
33 inst_245:S 0.1076
34 n543:24 0.0829
35 n543:25 0.1977
36 n543:26 0.4694
37 n543:27 0.3877
38 inst_90:A1 0.3882
39 n543:28 0.2243
40 inst_95:A2 0.1286
41 n543:29 0.4091
42 n543:30 0.2613
43 inst_157:A1 0.3587
44 n543:31 0.1210
45 n543:32 0.1733
46 n543:33 0.1014
47 n543:34 0.0283
48 n543:35 0.2763
49 inst_146:A1 0.2945
50 n543:36 0.3629
51 inst_165:A1 0.2821
52 n543:37 0.3735
53 n543:38 0.1079
54 n543:39 0.3323
55 inst_161:A1 0.2907
56 n543:40 0.2773
57 inst_143:A1 0.0903
58 n543:41 0.3090
59 n543:42 0.3972
60 n543:43 0.4228
61 n543:44 0.2443
62 inst_152:A1 0.2458
63 n543:45 0.0472
64 n543:46 0.4436
65 n543:47 0.1981
66 n543:48 0.3275
67 inst_149:A1 0.0169
*RES
2 TAUGATE_440:Z n543:1 0.3594
3 n543:1 n543:2 0.0525
4 n543:2 inst_162:A1 0.3248
5 n543:2 n543:3 0.2980
6 n543:3 n543:4 0.2454
7 n543:4 inst_214:A1 0.4670
8 n543:2 n543:5 0.1405
9 n543:5 n543:6 0.0668
10 n543:6 inst_160:A1 0.3699
11 n543:6 n543:7 0.0253
12 n543:7 n543:8 0.3105
13 n543:8 n543:9 0.1881
14 n543:9 n543:10 0.2034
15 n543:10 inst_145:A1 0.1592
16 n543:6 n543:11 0.2731
17 n543:11 n543:12 0.1525
18 n543:12 n543:13 0.0518
19 n543:13 n543:14 0.2548
20 n543:14 inst_148:A1 0.2154
21 n543:5 n543:15 0.2239
22 n543:15 inst_287:A 0.0917
23 n543:14 n543:16 0.2883
24 n543:16 n543:17 0.1903
25 n543:17 inst_151:A1 0.4381
26 n543:13 n543:18 0.0464
27 n543:18 inst_158:A1 0.0364
28 n543:1 n543:19 0.4606
29 n543:19 n543:20 0.3388
30 n543:20 n543:21 0.4657
31 n543:21 n543:22 0.3595
32 n543:22 n543:23 0.2471
33 n543:23 inst_245:S 0.0832
34 n543:2 n543:24 0.4950
35 n543:24 n543:25 0.0413
36 n543:25 n543:26 0.4651
37 n543:26 n543:27 0.4065
38 n543:27 inst_90:A1 0.3164
39 n543:6 n543:28 0.4269
40 n543:28 inst_95:A2 0.2482
41 n543:13 n543:29 0.1869
42 n543:29 n543:30 0.4974
43 n543:30 inst_157:A1 0.3047
44 n543:7 n543:31 0.3177
45 n543:31 n543:32 0.2101
46 n543:32 n543:33 0.3390
47 n543:33 n543:34 0.2046
48 n543:34 n543:35 0.3404
49 n543:35 inst_146:A1 0.1317
50 n543:26 n543:36 0.3900
51 n543:36 inst_165:A1 0.0557
52 n543:9 n543:37 0.0362
53 n543:37 n543:38 0.4966
54 n543:38 n543:39 0.4101
55 n543:39 inst_161:A1 0.2702
56 n543:17 n543:40 0.0485
57 n543:40 inst_143:A1 0.4602
58 n543:16 n543:41 0.3734
59 n543:41 n543:42 0.1567
60 n543:42 n543:43 0.1247
61 n543:43 n543:44 0.2439
62 n543:44 inst_152:A1 0.2588
63 n543:40 n543:45 0.4026
64 n543:45 n543:46 0.4684
65 n543:46 n543:47 0.2490
66 n543:47 n543:48 0.0579
67 n543:48 inst_149:A1 0.0423
*END

*D_NET TAUNET_232 1.8957
*CONN
*I inst_214:ZN O
*I TAUGATE_232:A I
*CAP
1 inst_214:ZN 0.4278
2 TAUNET_232:1 0.4796
3 TAUNET_232:2 0.3740
4 TAUNET_232:3 0.1554
5 TAUNET_232:4 0.0209
6 TAUGATE_232:A 0.4380
*RES
2 inst_214:ZN TAUNET_232:1 0.4130
3 TAUNET_232:1 TAUNET_232:2 0.4990
4 TAUNET_232:2 TAUNET_232:3 0.2134
5 TAUNET_232:3 TAUNET_232:4 0.1115
6 TAUNET_232:4 TAUGATE_232:A 0.4947
*END

*D_NET net_129 4.6992
*CONN
*I TAUGATE_507:Z O
*I inst_259:B I
*I inst_44:A I
*I inst_99:A2 I
*I inst_336:A2 I
*CAP
1 TAUGATE_507:Z 0.2854
2 net_129:1 0.2438
3 net_129:2 0.2969
4 net_129:3 0.3091
5 net_129:4 0.5006
6 net_129:5 0.2264
7 inst_99:A2 0.3973
8 net_129:6 0.0562
9 net_129:7 0.0882
10 inst_44:A 0.4386
11 net_129:8 0.1026
12 net_129:9 0.1939
13 inst_259:B 0.1095
14 net_129:10 0.3663
15 net_129:11 0.2540
16 net_129:12 0.0526
17 net_129:13 0.2388
18 net_129:14 0.1787
19 inst_336:A2 0.3603
*RES
2 TAUGATE_507:Z net_129:1 0.2044
3 net_129:1 net_129:2 0.1531
4 net_129:2 net_129:3 0.3886
5 net_129:3 net_129:4 0.2618
6 net_129:4 net_129:5 0.2468
7 net_129:5 inst_99:A2 0.4002
8 net_129:5 net_129:6 0.2715
9 net_129:6 net_129:7 0.0199
10 net_129:7 inst_44:A 0.4145
11 net_129:2 net_129:8 0.0212
12 net_129:8 net_129:9 0.1417
13 net_129:9 inst_259:B 0.2190
14 net_129:2 net_129:10 0.0603
15 net_129:10 net_129:11 0.0863
16 net_129:11 net_129:12 0.3102
17 net_129:12 net_129:13 0.1239
18 net_129:13 net_129:14 0.2473
19 net_129:14 inst_336:A2 0.0055
*END

*D_NET net_98 1.2459
*CONN
*I TAUGATE_617:Z O
*I inst_134:A3 I
*CAP
1 TAUGATE_617:Z 0.2412
2 net_98:1 0.4441
3 net_98:2 0.4218
4 net_98:3 0.0848
5 net_98:4 0.0266
6 inst_134:A3 0.0274
*RES
2 TAUGATE_617:Z net_98:1 0.4218
3 net_98:1 net_98:2 0.2061
4 net_98:2 net_98:3 0.2110
5 net_98:3 net_98:4 0.4583
6 net_98:4 inst_134:A3 0.3985
*END

*D_NET n1341 2.9562
*CONN
*I TAUGATE_220:Z O
*I inst_15:A I
*I inst_6:B I
*I inst_276:B I
*CAP
1 TAUGATE_220:Z 0.0725
2 n1341:1 0.3124
3 n1341:2 0.3685
4 n1341:3 0.4317
5 n1341:4 0.1801
6 n1341:5 0.2826
7 inst_15:A 0.3420
8 n1341:6 0.0327
9 n1341:7 0.0608
10 inst_6:B 0.3721
11 n1341:8 0.2502
12 inst_276:B 0.2506
*RES
2 TAUGATE_220:Z n1341:1 0.0965
3 n1341:1 n1341:2 0.2555
4 n1341:2 n1341:3 0.1304
5 n1341:3 n1341:4 0.3675
6 n1341:4 n1341:5 0.4634
7 n1341:5 inst_15:A 0.2869
8 n1341:2 n1341:6 0.4648
9 n1341:6 n1341:7 0.2376
10 n1341:7 inst_6:B 0.1146
11 n1341:2 n1341:8 0.4486
12 n1341:8 inst_276:B 0.0641
*END

*D_NET net_151 0.4185
*CONN
*I TAUGATE_310:Z O
*I inst_233:A2 I
*I inst_101:A2 I
*CAP
1 TAUGATE_310:Z 0.0079
2 net_151:1 0.2219
3 inst_233:A2 0.1001
4 net_151:2 0.0620
5 inst_101:A2 0.0267
*RES
2 TAUGATE_310:Z net_151:1 0.2747
3 net_151:1 inst_233:A2 0.1704
4 net_151:1 net_151:2 0.1278
5 net_151:2 inst_101:A2 0.1079
*END

*D_NET net_53 7.3005
*CONN
*I TAUGATE_485:Z O
*I inst_160:A3 I
*I inst_162:A3 I
*I inst_158:A3 I
*I inst_95:A1 I
*I inst_165:A3 I
*I inst_161:A3 I
*CAP
1 TAUGATE_485:Z 0.1254
2 net_53:1 0.4751
3 net_53:2 0.3195
4 net_53:3 0.4748
5 net_53:4 0.2505
6 inst_165:A3 0.2036
7 net_53:5 0.2723
8 net_53:6 0.2079
9 net_53:7 0.2449
10 inst_162:A3 0.0406
11 net_53:8 0.0937
12 net_53:9 0.2944
13 inst_158:A3 0.3987
14 net_53:10 0.2138
15 net_53:11 0.5008
16 inst_95:A1 0.2979
17 net_53:12 0.1363
18 net_53:13 0.3277
19 net_53:14 0.3144
20 net_53:15 0.4503
21 inst_160:A3 0.3676
22 net_53:16 0.4065
23 net_53:17 0.0227
24 net_53:18 0.2236
25 net_53:19 0.4114
26 net_53:20 0.0715
27 inst_161:A3 0.1546
*RES
2 TAUGATE_485:Z net_53:1 0.3990
3 net_53:1 net_53:2 0.0185
4 net_53:2 net_53:3 0.3777
5 net_53:3 net_53:4 0.2437
6 net_53:4 inst_165:A3 0.3641
7 net_53:1 net_53:5 0.0917
8 net_53:5 net_53:6 0.0078
9 net_53:6 net_53:7 0.0227
10 net_53:7 inst_162:A3 0.0264
11 net_53:3 net_53:8 0.0209
12 net_53:8 net_53:9 0.1182
13 net_53:9 inst_158:A3 0.1067
14 net_53:2 net_53:10 0.3428
15 net_53:10 net_53:11 0.2325
16 net_53:11 inst_95:A1 0.2733
17 net_53:4 net_53:12 0.1603
18 net_53:12 net_53:13 0.4423
19 net_53:13 net_53:14 0.1159
20 net_53:14 net_53:15 0.4527
21 net_53:15 inst_160:A3 0.1465
22 net_53:5 net_53:16 0.1861
23 net_53:16 net_53:17 0.4367
24 net_53:17 net_53:18 0.3452
25 net_53:18 net_53:19 0.0313
26 net_53:19 net_53:20 0.1217
27 net_53:20 inst_161:A3 0.0111
*END

*D_NET n63 1.2561
*CONN
*I TAUGATE_563:Z O
*I inst_199:A1 I
*CAP
1 TAUGATE_563:Z 0.0613
2 n63:1 0.4407
3 n63:2 0.4978
4 inst_199:A1 0.2563
*RES
2 TAUGATE_563:Z n63:1 0.2595
3 n63:1 n63:2 0.2603
4 n63:2 inst_199:A1 0.2874
*END

*D_NET TAUNET_504 1.0267
*CONN
*P n1961 I
*I TAUGATE_504:A I
*CAP
1 n1961 0.2768
2 TAUNET_504:1 0.2053
3 TAUNET_504:2 0.2140
4 TAUGATE_504:A 0.3306
*RES
2 n1961 TAUNET_504:1 0.1569
3 TAUNET_504:1 TAUNET_504:2 0.2580
4 TAUNET_504:2 TAUGATE_504:A 0.2138
*END

*D_NET TAUNET_91 2.1838
*CONN
*P n66 I
*I TAUGATE_91:A I
*CAP
1 n66 0.3806
2 TAUNET_91:1 0.4608
3 TAUNET_91:2 0.4692
4 TAUNET_91:3 0.4766
5 TAUNET_91:4 0.0589
6 TAUNET_91:5 0.0962
7 TAUGATE_91:A 0.2415
*RES
2 n66 TAUNET_91:1 0.1750
3 TAUNET_91:1 TAUNET_91:2 0.4103
4 TAUNET_91:2 TAUNET_91:3 0.0845
5 TAUNET_91:3 TAUNET_91:4 0.1888
6 TAUNET_91:4 TAUNET_91:5 0.1436
7 TAUNET_91:5 TAUGATE_91:A 0.1762
*END

*D_NET TAUNET_603 0.3366
*CONN
*I inst_203:ZN O
*I TAUGATE_603:A I
*CAP
1 inst_203:ZN 0.0806
2 TAUNET_603:1 0.2069
3 TAUGATE_603:A 0.0491
*RES
2 inst_203:ZN TAUNET_603:1 0.4137
3 TAUNET_603:1 TAUGATE_603:A 0.3046
*END

*D_NET TAUNET_208 1.0479
*CONN
*I inst_286:ZN O
*I TAUGATE_208:A I
*CAP
1 inst_286:ZN 0.2640
2 TAUNET_208:1 0.4110
3 TAUNET_208:2 0.0191
4 TAUGATE_208:A 0.3538
*RES
2 inst_286:ZN TAUNET_208:1 0.4300
3 TAUNET_208:1 TAUNET_208:2 0.3629
4 TAUNET_208:2 TAUGATE_208:A 0.0787
*END

*D_NET net_259 2.7962
*CONN
*I TAUGATE_77:Z O
*I inst_80:A2 I
*I inst_79:A3 I
*CAP
1 TAUGATE_77:Z 0.2971
2 net_259:1 0.5010
3 net_259:2 0.3538
4 net_259:3 0.4649
5 net_259:4 0.0482
6 net_259:5 0.1062
7 inst_80:A2 0.2963
8 net_259:6 0.0470
9 net_259:7 0.0745
10 net_259:8 0.1738
11 inst_79:A3 0.4336
*RES
2 TAUGATE_77:Z net_259:1 0.4911
3 net_259:1 net_259:2 0.2002
4 net_259:2 net_259:3 0.2573
5 net_259:3 net_259:4 0.3761
6 net_259:4 net_259:5 0.0616
7 net_259:5 inst_80:A2 0.4298
8 net_259:3 net_259:6 0.4556
9 net_259:6 net_259:7 0.1284
10 net_259:7 net_259:8 0.0036
11 net_259:8 inst_79:A3 0.1731
*END

*D_NET n101 2.1141
*CONN
*I TAUGATE_63:Z O
*I inst_164:A2 I
*CAP
1 TAUGATE_63:Z 0.3095
2 n101:1 0.4033
3 n101:2 0.2734
4 n101:3 0.3461
5 n101:4 0.3729
6 n101:5 0.0418
7 inst_164:A2 0.3671
*RES
2 TAUGATE_63:Z n101:1 0.3815
3 n101:1 n101:2 0.1458
4 n101:2 n101:3 0.4915
5 n101:3 n101:4 0.0683
6 n101:4 n101:5 0.2135
7 n101:5 inst_164:A2 0.4484
*END

*D_NET net_187 3.9334
*CONN
*I TAUGATE_395:Z O
*I inst_333:A1 I
*I inst_241:A1 I
*I inst_174:A1 I
*I inst_175:A1 I
*I inst_334:A1 I
*CAP
1 TAUGATE_395:Z 0.1139
2 net_187:1 0.0861
3 inst_241:A1 0.1477
4 net_187:2 0.2818
5 net_187:3 0.3290
6 inst_333:A1 0.1592
7 net_187:4 0.0096
8 net_187:5 0.4963
9 inst_174:A1 0.2377
10 net_187:6 0.3400
11 net_187:7 0.2352
12 net_187:8 0.3112
13 net_187:9 0.1345
14 inst_175:A1 0.4134
15 net_187:10 0.2343
16 net_187:11 0.1106
17 net_187:12 0.0283
18 inst_334:A1 0.2644
*RES
2 TAUGATE_395:Z net_187:1 0.4806
3 net_187:1 inst_241:A1 0.3473
4 net_187:1 net_187:2 0.4236
5 net_187:2 net_187:3 0.3328
6 net_187:3 inst_333:A1 0.1906
7 net_187:2 net_187:4 0.2571
8 net_187:4 net_187:5 0.3610
9 net_187:5 inst_174:A1 0.0042
10 net_187:3 net_187:6 0.0741
11 net_187:6 net_187:7 0.4290
12 net_187:7 net_187:8 0.4891
13 net_187:8 net_187:9 0.0621
14 net_187:9 inst_175:A1 0.2122
15 net_187:2 net_187:10 0.3395
16 net_187:10 net_187:11 0.4160
17 net_187:11 net_187:12 0.1311
18 net_187:12 inst_334:A1 0.1702
*END

*D_NET n1348 2.7314
*CONN
*I TAUGATE_136:Z O
*I inst_6:A I
*I inst_20:A I
*I inst_274:B I
*CAP
1 TAUGATE_136:Z 0.0383
2 n1348:1 0.2177
3 n1348:2 0.0520
4 n1348:3 0.1787
5 inst_6:A 0.3277
6 n1348:4 0.0500
7 n1348:5 0.3450
8 n1348:6 0.2552
9 n1348:7 0.2397
10 inst_20:A 0.3943
11 n1348:8 0.2910
12 inst_274:B 0.3418
*RES
2 TAUGATE_136:Z n1348:1 0.2308
3 n1348:1 n1348:2 0.1825
4 n1348:2 n1348:3 0.4154
5 n1348:3 inst_6:A 0.4205
6 n1348:1 n1348:4 0.0450
7 n1348:4 n1348:5 0.3586
8 n1348:5 n1348:6 0.1804
9 n1348:6 n1348:7 0.2132
10 n1348:7 inst_20:A 0.3448
11 n1348:4 n1348:8 0.0277
12 n1348:8 inst_274:B 0.2232
*END

*D_NET net_111 1.6631
*CONN
*I TAUGATE_404:Z O
*I inst_299:A I
*I inst_63:A1 I
*CAP
1 TAUGATE_404:Z 0.3825
2 net_111:1 0.0258
3 net_111:2 0.0722
4 net_111:3 0.0268
5 net_111:4 0.0274
6 net_111:5 0.0955
7 inst_299:A 0.0758
8 net_111:6 0.0316
9 net_111:7 0.1823
10 net_111:8 0.0755
11 net_111:9 0.3163
12 inst_63:A1 0.3515
*RES
2 TAUGATE_404:Z net_111:1 0.0730
3 net_111:1 net_111:2 0.2996
4 net_111:2 net_111:3 0.1500
5 net_111:3 net_111:4 0.2720
6 net_111:4 net_111:5 0.0605
7 net_111:5 inst_299:A 0.1555
8 net_111:4 net_111:6 0.2983
9 net_111:6 net_111:7 0.4269
10 net_111:7 net_111:8 0.0493
11 net_111:8 net_111:9 0.0341
12 net_111:9 inst_63:A1 0.3020
*END

*D_NET net_264 1.2913
*CONN
*I TAUGATE_537:Z O
*I inst_139:A2 I
*CAP
1 TAUGATE_537:Z 0.4000
2 net_264:1 0.4709
3 inst_139:A2 0.4204
*RES
2 TAUGATE_537:Z net_264:1 0.0122
3 net_264:1 inst_139:A2 0.2688
*END

*D_NET TAUNET_192 0.9187
*CONN
*I inst_188:ZN O
*I TAUGATE_192:A I
*CAP
1 inst_188:ZN 0.3051
2 TAUNET_192:1 0.2956
3 TAUNET_192:2 0.2210
4 TAUGATE_192:A 0.0970
*RES
2 inst_188:ZN TAUNET_192:1 0.2798
3 TAUNET_192:1 TAUNET_192:2 0.3150
4 TAUNET_192:2 TAUGATE_192:A 0.0137
*END

*D_NET net_225 0.8876
*CONN
*I TAUGATE_322:Z O
*I inst_83:A1 I
*CAP
1 TAUGATE_322:Z 0.3101
2 net_225:1 0.2047
3 inst_83:A1 0.3729
*RES
2 TAUGATE_322:Z net_225:1 0.0610
3 net_225:1 inst_83:A1 0.4010
*END

*D_NET TAUNET_141 1.9020
*CONN
*I inst_260:Z O
*I TAUGATE_141:A I
*CAP
1 inst_260:Z 0.3768
2 TAUNET_141:1 0.1250
3 TAUNET_141:2 0.3526
4 TAUNET_141:3 0.3715
5 TAUNET_141:4 0.3144
6 TAUGATE_141:A 0.3618
*RES
2 inst_260:Z TAUNET_141:1 0.0820
3 TAUNET_141:1 TAUNET_141:2 0.2174
4 TAUNET_141:2 TAUNET_141:3 0.3638
5 TAUNET_141:3 TAUNET_141:4 0.4097
6 TAUNET_141:4 TAUGATE_141:A 0.2418
*END

*D_NET n116 1.6988
*CONN
*I TAUGATE_102:Z O
*I inst_212:A1 I
*CAP
1 TAUGATE_102:Z 0.3118
2 n116:1 0.3134
3 n116:2 0.4059
4 n116:3 0.1396
5 n116:4 0.0910
6 n116:5 0.1278
7 inst_212:A1 0.3093
*RES
2 TAUGATE_102:Z n116:1 0.3342
3 n116:1 n116:2 0.2150
4 n116:2 n116:3 0.0109
5 n116:3 n116:4 0.1830
6 n116:4 n116:5 0.2298
7 n116:5 inst_212:A1 0.0712
*END

*D_NET n150 1.3087
*CONN
*I TAUGATE_127:Z O
*P n150 O
*I inst_314:A I
*CAP
1 TAUGATE_127:Z 0.1986
2 n150:1 0.0521
3 n150 0.0546
4 n150:2 0.1466
5 n150:3 0.2784
6 n150:4 0.2008
7 inst_314:A 0.3776
*RES
2 TAUGATE_127:Z n150:1 0.0043
3 n150:1 n150 0.2737
4 n150:1 n150:2 0.2937
5 n150:2 n150:3 0.0093
6 n150:3 n150:4 0.2822
7 n150:4 inst_314:A 0.4311
*END

*D_NET n78 1.6512
*CONN
*I TAUGATE_491:Z O
*I inst_152:A3 I
*CAP
1 TAUGATE_491:Z 0.1138
2 n78:1 0.3567
3 n78:2 0.3242
4 n78:3 0.2336
5 n78:4 0.3863
6 inst_152:A3 0.2365
*RES
2 TAUGATE_491:Z n78:1 0.1037
3 n78:1 n78:2 0.3572
4 n78:2 n78:3 0.2211
5 n78:3 n78:4 0.2185
6 n78:4 inst_152:A3 0.2266
*END

*D_NET n567 2.5687
*CONN
*I TAUGATE_74:Z O
*I inst_220:A1 I
*I inst_215:A1 I
*CAP
1 TAUGATE_74:Z 0.1297
2 n567:1 0.2417
3 n567:2 0.2444
4 n567:3 0.4262
5 n567:4 0.3737
6 n567:5 0.3015
7 inst_215:A1 0.1830
8 n567:6 0.1111
9 n567:7 0.3711
10 n567:8 0.0512
11 inst_220:A1 0.1351
*RES
2 TAUGATE_74:Z n567:1 0.3035
3 n567:1 n567:2 0.4053
4 n567:2 n567:3 0.0863
5 n567:3 n567:4 0.2362
6 n567:4 n567:5 0.1365
7 n567:5 inst_215:A1 0.0277
8 n567:5 n567:6 0.0984
9 n567:6 n567:7 0.0368
10 n567:7 n567:8 0.4376
11 n567:8 inst_220:A1 0.1423
*END

*D_NET net_263 2.0911
*CONN
*I TAUGATE_499:Z O
*I inst_330:A1 I
*CAP
1 TAUGATE_499:Z 0.1146
2 net_263:1 0.4610
3 net_263:2 0.4832
4 net_263:3 0.2776
5 net_263:4 0.3781
6 inst_330:A1 0.3766
*RES
2 TAUGATE_499:Z net_263:1 0.0185
3 net_263:1 net_263:2 0.3877
4 net_263:2 net_263:3 0.1588
5 net_263:3 net_263:4 0.3738
6 net_263:4 inst_330:A1 0.4556
*END

*D_NET net_124 1.0723
*CONN
*I TAUGATE_347:Z O
*I inst_51:A I
*CAP
1 TAUGATE_347:Z 0.0020
2 net_124:1 0.3010
3 net_124:2 0.2164
4 net_124:3 0.4372
5 inst_51:A 0.1158
*RES
2 TAUGATE_347:Z net_124:1 0.1153
3 net_124:1 net_124:2 0.3810
4 net_124:2 net_124:3 0.1100
5 net_124:3 inst_51:A 0.1662
*END

*D_NET net_252 3.3212
*CONN
*I TAUGATE_300:Z O
*I inst_179:A3 I
*I inst_330:A2 I
*I inst_311:A I
*CAP
1 TAUGATE_300:Z 0.2541
2 net_252:1 0.4625
3 net_252:2 0.2343
4 net_252:3 0.0981
5 inst_330:A2 0.3461
6 net_252:4 0.0414
7 net_252:5 0.2455
8 net_252:6 0.1970
9 inst_179:A3 0.0138
10 net_252:7 0.4199
11 net_252:8 0.3736
12 net_252:9 0.3306
13 inst_311:A 0.3042
*RES
2 TAUGATE_300:Z net_252:1 0.2382
3 net_252:1 net_252:2 0.4109
4 net_252:2 net_252:3 0.0945
5 net_252:3 inst_330:A2 0.2326
6 net_252:2 net_252:4 0.4527
7 net_252:4 net_252:5 0.3131
8 net_252:5 net_252:6 0.4392
9 net_252:6 inst_179:A3 0.4048
10 net_252:4 net_252:7 0.1317
11 net_252:7 net_252:8 0.1481
12 net_252:8 net_252:9 0.2485
13 net_252:9 inst_311:A 0.2201
*END

*D_NET n119 0.7087
*CONN
*I TAUGATE_249:Z O
*I inst_154:A3 I
*CAP
1 TAUGATE_249:Z 0.3013
2 n119:1 0.0262
3 inst_154:A3 0.3812
*RES
2 TAUGATE_249:Z n119:1 0.0656
3 n119:1 inst_154:A3 0.1550
*END

*D_NET TAUNET_427 1.3180
*CONN
*I inst_343:ZN O
*I TAUGATE_427:A I
*CAP
1 inst_343:ZN 0.1418
2 TAUNET_427:1 0.3805
3 TAUNET_427:2 0.2523
4 TAUNET_427:3 0.0497
5 TAUGATE_427:A 0.4938
*RES
2 inst_343:ZN TAUNET_427:1 0.3913
3 TAUNET_427:1 TAUNET_427:2 0.2131
4 TAUNET_427:2 TAUNET_427:3 0.3201
5 TAUNET_427:3 TAUGATE_427:A 0.0320
*END

*D_NET net_160 2.1105
*CONN
*I TAUGATE_95:Z O
*I inst_176:A3 I
*CAP
1 TAUGATE_95:Z 0.3378
2 net_160:1 0.2454
3 net_160:2 0.4527
4 net_160:3 0.2663
5 net_160:4 0.3641
6 net_160:5 0.1740
7 inst_176:A3 0.2701
*RES
2 TAUGATE_95:Z net_160:1 0.3351
3 net_160:1 net_160:2 0.4105
4 net_160:2 net_160:3 0.3004
5 net_160:3 net_160:4 0.3665
6 net_160:4 net_160:5 0.1341
7 net_160:5 inst_176:A3 0.0859
*END

*D_NET n141 0.5333
*CONN
*I TAUGATE_301:Z O
*I inst_166:A2 I
*CAP
1 TAUGATE_301:Z 0.3812
2 n141:1 0.1227
3 inst_166:A2 0.0294
*RES
2 TAUGATE_301:Z n141:1 0.0059
3 n141:1 inst_166:A2 0.3552
*END

*D_NET TAUNET_201 2.1906
*CONN
*I inst_330:ZN O
*I TAUGATE_201:A I
*CAP
1 inst_330:ZN 0.1840
2 TAUNET_201:1 0.3573
3 TAUNET_201:2 0.4559
4 TAUNET_201:3 0.3575
5 TAUNET_201:4 0.1715
6 TAUNET_201:5 0.3050
7 TAUGATE_201:A 0.3594
*RES
2 inst_330:ZN TAUNET_201:1 0.4902
3 TAUNET_201:1 TAUNET_201:2 0.4716
4 TAUNET_201:2 TAUNET_201:3 0.2112
5 TAUNET_201:3 TAUNET_201:4 0.1762
6 TAUNET_201:4 TAUNET_201:5 0.1166
7 TAUNET_201:5 TAUGATE_201:A 0.1660
*END

*D_NET n21 1.7572
*CONN
*I TAUGATE_296:Z O
*I inst_268:A I
*CAP
1 TAUGATE_296:Z 0.2908
2 n21:1 0.3308
3 n21:2 0.4080
4 n21:3 0.4669
5 n21:4 0.1932
6 inst_268:A 0.0675
*RES
2 TAUGATE_296:Z n21:1 0.0053
3 n21:1 n21:2 0.1459
4 n21:2 n21:3 0.0437
5 n21:3 n21:4 0.4598
6 n21:4 inst_268:A 0.3838
*END

*D_NET TAUNET_398 2.5348
*CONN
*I inst_300:ZN O
*I TAUGATE_398:A I
*CAP
1 inst_300:ZN 0.3263
2 TAUNET_398:1 0.4683
3 TAUNET_398:2 0.1543
4 TAUNET_398:3 0.4873
5 TAUNET_398:4 0.1669
6 TAUNET_398:5 0.4800
7 TAUGATE_398:A 0.4518
*RES
2 inst_300:ZN TAUNET_398:1 0.0570
3 TAUNET_398:1 TAUNET_398:2 0.4909
4 TAUNET_398:2 TAUNET_398:3 0.0572
5 TAUNET_398:3 TAUNET_398:4 0.5008
6 TAUNET_398:4 TAUNET_398:5 0.1013
7 TAUNET_398:5 TAUGATE_398:A 0.2457
*END

*D_NET TAUNET_546 2.1229
*CONN
*I inst_64:ZN O
*I TAUGATE_546:A I
*CAP
1 inst_64:ZN 0.2594
2 TAUNET_546:1 0.4074
3 TAUNET_546:2 0.4309
4 TAUNET_546:3 0.4474
5 TAUNET_546:4 0.2931
6 TAUGATE_546:A 0.2848
*RES
2 inst_64:ZN TAUNET_546:1 0.2246
3 TAUNET_546:1 TAUNET_546:2 0.3320
4 TAUNET_546:2 TAUNET_546:3 0.3870
5 TAUNET_546:3 TAUNET_546:4 0.3663
6 TAUNET_546:4 TAUGATE_546:A 0.1512
*END

*D_NET TAUNET_386 2.3961
*CONN
*P n1971 I
*I TAUGATE_386:A I
*CAP
1 n1971 0.4493
2 TAUNET_386:1 0.2866
3 TAUNET_386:2 0.1873
4 TAUNET_386:3 0.1599
5 TAUNET_386:4 0.3589
6 TAUNET_386:5 0.4697
7 TAUGATE_386:A 0.4844
*RES
2 n1971 TAUNET_386:1 0.0401
3 TAUNET_386:1 TAUNET_386:2 0.2861
4 TAUNET_386:2 TAUNET_386:3 0.1883
5 TAUNET_386:3 TAUNET_386:4 0.3075
6 TAUNET_386:4 TAUNET_386:5 0.0604
7 TAUNET_386:5 TAUGATE_386:A 0.3908
*END

*D_NET TAUNET_362 1.0274
*CONN
*I inst_89:ZN O
*I TAUGATE_362:A I
*CAP
1 inst_89:ZN 0.4162
2 TAUNET_362:1 0.0491
3 TAUNET_362:2 0.3511
4 TAUGATE_362:A 0.2111
*RES
2 inst_89:ZN TAUNET_362:1 0.3010
3 TAUNET_362:1 TAUNET_362:2 0.1515
4 TAUNET_362:2 TAUGATE_362:A 0.0492
*END

*D_NET TAUNET_44 1.1227
*CONN
*I TAUGATE_114:Z O
*I TAUGATE_44:A I
*CAP
1 TAUGATE_114:Z 0.0711
2 TAUNET_44:1 0.0021
3 TAUNET_44:2 0.2080
4 TAUNET_44:3 0.3529
5 TAUGATE_44:A 0.4886
*RES
2 TAUGATE_114:Z TAUNET_44:1 0.3648
3 TAUNET_44:1 TAUNET_44:2 0.4404
4 TAUNET_44:2 TAUNET_44:3 0.3187
5 TAUNET_44:3 TAUGATE_44:A 0.4272
*END

*D_NET TAUNET_373 1.4415
*CONN
*I inst_54:ZN O
*I TAUGATE_373:A I
*CAP
1 inst_54:ZN 0.4026
2 TAUNET_373:1 0.1803
3 TAUNET_373:2 0.0882
4 TAUNET_373:3 0.2924
5 TAUGATE_373:A 0.4780
*RES
2 inst_54:ZN TAUNET_373:1 0.3510
3 TAUNET_373:1 TAUNET_373:2 0.1182
4 TAUNET_373:2 TAUNET_373:3 0.2614
5 TAUNET_373:3 TAUGATE_373:A 0.1530
*END

*D_NET net_35 1.0392
*CONN
*I TAUGATE_207:Z O
*I inst_125:A1 I
*CAP
1 TAUGATE_207:Z 0.4484
2 net_35:1 0.1986
3 inst_125:A1 0.3922
*RES
2 TAUGATE_207:Z net_35:1 0.3950
3 net_35:1 inst_125:A1 0.2666
*END

*D_NET n1976 4.3570
*CONN
*I TAUGATE_304:Z O
*I inst_109:A1 I
*I inst_43:A I
*I inst_24:A I
*CAP
1 TAUGATE_304:Z 0.4671
2 n1976:1 0.3936
3 n1976:2 0.4880
4 n1976:3 0.4169
5 inst_24:A 0.3167
6 n1976:4 0.1908
7 n1976:5 0.1996
8 n1976:6 0.3123
9 inst_43:A 0.1251
10 n1976:7 0.3466
11 n1976:8 0.4948
12 n1976:9 0.4038
13 n1976:10 0.1954
14 inst_109:A1 0.0063
*RES
2 TAUGATE_304:Z n1976:1 0.3376
3 n1976:1 n1976:2 0.1073
4 n1976:2 n1976:3 0.3579
5 n1976:3 inst_24:A 0.1300
6 n1976:3 n1976:4 0.0048
7 n1976:4 n1976:5 0.3126
8 n1976:5 n1976:6 0.0195
9 n1976:6 inst_43:A 0.0541
10 n1976:5 n1976:7 0.4904
11 n1976:7 n1976:8 0.0915
12 n1976:8 n1976:9 0.4619
13 n1976:9 n1976:10 0.1065
14 n1976:10 inst_109:A1 0.1990
*END

*D_NET TAUNET_56 0.5577
*CONN
*I TAUGATE_459:Z O
*I TAUGATE_56:A I
*CAP
1 TAUGATE_459:Z 0.0690
2 TAUNET_56:1 0.2934
3 TAUNET_56:2 0.0661
4 TAUNET_56:3 0.0281
5 TAUGATE_56:A 0.1011
*RES
2 TAUGATE_459:Z TAUNET_56:1 0.2539
3 TAUNET_56:1 TAUNET_56:2 0.0765
4 TAUNET_56:2 TAUNET_56:3 0.1980
5 TAUNET_56:3 TAUGATE_56:A 0.3226
*END

*D_NET net_193 3.3426
*CONN
*I TAUGATE_599:Z O
*I inst_54:B I
*I inst_48:A I
*CAP
1 TAUGATE_599:Z 0.2766
2 net_193:1 0.4267
3 net_193:2 0.4596
4 net_193:3 0.3295
5 net_193:4 0.4724
6 net_193:5 0.4631
7 inst_54:B 0.0407
8 net_193:6 0.0346
9 net_193:7 0.4333
10 net_193:8 0.0645
11 inst_48:A 0.3416
*RES
2 TAUGATE_599:Z net_193:1 0.4130
3 net_193:1 net_193:2 0.3462
4 net_193:2 net_193:3 0.0714
5 net_193:3 net_193:4 0.2110
6 net_193:4 net_193:5 0.2588
7 net_193:5 inst_54:B 0.0339
8 net_193:3 net_193:6 0.4099
9 net_193:6 net_193:7 0.1540
10 net_193:7 net_193:8 0.0325
11 net_193:8 inst_48:A 0.0924
*END

*D_NET TAUNET_526 1.2932
*CONN
*I TAUGATE_10:Z O
*I TAUGATE_526:A I
*CAP
1 TAUGATE_10:Z 0.1516
2 TAUNET_526:1 0.4228
3 TAUNET_526:2 0.1417
4 TAUNET_526:3 0.3754
5 TAUGATE_526:A 0.2016
*RES
2 TAUGATE_10:Z TAUNET_526:1 0.0068
3 TAUNET_526:1 TAUNET_526:2 0.2001
4 TAUNET_526:2 TAUNET_526:3 0.4220
5 TAUNET_526:3 TAUGATE_526:A 0.4926
*END

*D_NET net_239 1.4952
*CONN
*I TAUGATE_202:Z O
*I inst_84:A1 I
*CAP
1 TAUGATE_202:Z 0.3810
2 net_239:1 0.2042
3 net_239:2 0.2030
4 net_239:3 0.2656
5 inst_84:A1 0.4413
*RES
2 TAUGATE_202:Z net_239:1 0.1336
3 net_239:1 net_239:2 0.4042
4 net_239:2 net_239:3 0.0451
5 net_239:3 inst_84:A1 0.2391
*END

*D_NET net_120 1.5183
*CONN
*I TAUGATE_306:Z O
*I inst_338:A2 I
*I inst_73:A2 I
*CAP
1 TAUGATE_306:Z 0.4146
2 net_120:1 0.2654
3 inst_338:A2 0.2245
4 net_120:2 0.4235
5 inst_73:A2 0.1903
*RES
2 TAUGATE_306:Z net_120:1 0.4797
3 net_120:1 inst_338:A2 0.0551
4 net_120:1 net_120:2 0.2143
5 net_120:2 inst_73:A2 0.0701
*END

*D_NET n308 3.2843
*CONN
*I TAUGATE_484:Z O
*P n308 O
*I inst_315:A I
*CAP
1 TAUGATE_484:Z 0.4634
2 n308:1 0.2766
3 n308:2 0.3086
4 n308:3 0.2353
5 n308 0.4838
6 n308:4 0.3681
7 n308:5 0.4419
8 n308:6 0.1561
9 n308:7 0.1347
10 n308:8 0.0224
11 inst_315:A 0.3933
*RES
2 TAUGATE_484:Z n308:1 0.0722
3 n308:1 n308:2 0.3539
4 n308:2 n308:3 0.3446
5 n308:3 n308 0.0192
6 n308:1 n308:4 0.2244
7 n308:4 n308:5 0.4154
8 n308:5 n308:6 0.1374
9 n308:6 n308:7 0.1713
10 n308:7 n308:8 0.2153
11 n308:8 inst_315:A 0.3119
*END

*D_NET net_201 2.0090
*CONN
*I TAUGATE_409:Z O
*I inst_310:A I
*I inst_58:A I
*CAP
1 TAUGATE_409:Z 0.3583
2 net_201:1 0.0071
3 inst_58:A 0.2242
4 net_201:2 0.4721
5 net_201:3 0.1185
6 net_201:4 0.4585
7 inst_310:A 0.3703
*RES
2 TAUGATE_409:Z net_201:1 0.4834
3 net_201:1 inst_58:A 0.4589
4 net_201:1 net_201:2 0.0365
5 net_201:2 net_201:3 0.4409
6 net_201:3 net_201:4 0.4335
7 net_201:4 inst_310:A 0.3158
*END

*D_NET TAUNET_211 1.4639
*CONN
*I inst_107:ZN O
*I TAUGATE_211:A I
*CAP
1 inst_107:ZN 0.4798
2 TAUNET_211:1 0.1778
3 TAUNET_211:2 0.3155
4 TAUGATE_211:A 0.4909
*RES
2 inst_107:ZN TAUNET_211:1 0.2285
3 TAUNET_211:1 TAUNET_211:2 0.2293
4 TAUNET_211:2 TAUGATE_211:A 0.4514
*END

*D_NET net_109 1.7572
*CONN
*I TAUGATE_588:Z O
*I inst_297:A I
*I inst_254:B I
*CAP
1 TAUGATE_588:Z 0.3442
2 net_109:1 0.2112
3 net_109:2 0.3238
4 inst_297:A 0.1536
5 net_109:3 0.2665
6 inst_254:B 0.4580
*RES
2 TAUGATE_588:Z net_109:1 0.2744
3 net_109:1 net_109:2 0.3973
4 net_109:2 inst_297:A 0.0682
5 net_109:1 net_109:3 0.4392
6 net_109:3 inst_254:B 0.4660
*END

*D_NET TAUNET_221 0.7474
*CONN
*I inst_126:ZN O
*I TAUGATE_221:A I
*CAP
1 inst_126:ZN 0.2711
2 TAUNET_221:1 0.1130
3 TAUNET_221:2 0.0719
4 TAUGATE_221:A 0.2913
*RES
2 inst_126:ZN TAUNET_221:1 0.3837
3 TAUNET_221:1 TAUNET_221:2 0.4308
4 TAUNET_221:2 TAUGATE_221:A 0.4593
*END

*D_NET net_80 5.3339
*CONN
*I TAUGATE_370:Z O
*I inst_207:A2 I
*I inst_223:A2 I
*I inst_204:A2 I
*I inst_201:A2 I
*I inst_205:A2 I
*I inst_199:A2 I
*CAP
1 TAUGATE_370:Z 0.1666
2 net_80:1 0.2000
3 net_80:2 0.4330
4 net_80:3 0.3792
5 net_80:4 0.3945
6 net_80:5 0.1168
7 inst_199:A2 0.0632
8 net_80:6 0.4466
9 net_80:7 0.0789
10 net_80:8 0.1418
11 inst_223:A2 0.2162
12 net_80:9 0.3632
13 net_80:10 0.2277
14 net_80:11 0.1399
15 inst_204:A2 0.3067
16 net_80:12 0.1519
17 inst_201:A2 0.4158
18 net_80:13 0.1398
19 inst_205:A2 0.3850
20 net_80:14 0.3839
21 net_80:15 0.0178
22 inst_207:A2 0.1655
*RES
2 TAUGATE_370:Z net_80:1 0.3389
3 net_80:1 net_80:2 0.2267
4 net_80:2 net_80:3 0.0022
5 net_80:3 net_80:4 0.3986
6 net_80:4 net_80:5 0.0342
7 net_80:5 inst_199:A2 0.1492
8 net_80:1 net_80:6 0.3480
9 net_80:6 net_80:7 0.3423
10 net_80:7 net_80:8 0.3091
11 net_80:8 inst_223:A2 0.3077
12 net_80:7 net_80:9 0.2194
13 net_80:9 net_80:10 0.0694
14 net_80:10 net_80:11 0.1731
15 net_80:11 inst_204:A2 0.0340
16 net_80:5 net_80:12 0.0326
17 net_80:12 inst_201:A2 0.2788
18 net_80:7 net_80:13 0.2235
19 net_80:13 inst_205:A2 0.2530
20 net_80:2 net_80:14 0.3230
21 net_80:14 net_80:15 0.3040
22 net_80:15 inst_207:A2 0.3068
*END

*D_NET TAUNET_81 0.7712
*CONN
*I inst_143:ZN O
*I TAUGATE_81:A I
*CAP
1 inst_143:ZN 0.0490
2 TAUNET_81:1 0.4082
3 TAUNET_81:2 0.0586
4 TAUGATE_81:A 0.2553
*RES
2 inst_143:ZN TAUNET_81:1 0.4766
3 TAUNET_81:1 TAUNET_81:2 0.4662
4 TAUNET_81:2 TAUGATE_81:A 0.1239
*END

*D_NET TAUNET_357 1.5997
*CONN
*P n27 I
*I TAUGATE_357:A I
*CAP
1 n27 0.4065
2 TAUNET_357:1 0.2328
3 TAUNET_357:2 0.0616
4 TAUNET_357:3 0.3670
5 TAUNET_357:4 0.3852
6 TAUGATE_357:A 0.1467
*RES
2 n27 TAUNET_357:1 0.2409
3 TAUNET_357:1 TAUNET_357:2 0.4071
4 TAUNET_357:2 TAUNET_357:3 0.2078
5 TAUNET_357:3 TAUNET_357:4 0.1018
6 TAUNET_357:4 TAUGATE_357:A 0.2212
*END

*D_NET TAUNET_511 0.9389
*CONN
*I inst_291:ZN O
*I TAUGATE_511:A I
*CAP
1 inst_291:ZN 0.1904
2 TAUNET_511:1 0.0491
3 TAUNET_511:2 0.0298
4 TAUNET_511:3 0.3266
5 TAUGATE_511:A 0.3430
*RES
2 inst_291:ZN TAUNET_511:1 0.0062
3 TAUNET_511:1 TAUNET_511:2 0.2799
4 TAUNET_511:2 TAUNET_511:3 0.1542
5 TAUNET_511:3 TAUGATE_511:A 0.1497
*END
