*SPEF "IEEE 1481-1998"
*DESIGN "changes"
*DATE "Tue Dec 02 20:44:44 2014"
*VENDOR "TAU 2015 Contest"
*PROGRAM "Benchmark Parasitic Generator"
*VERSION "0.0"
*DESIGN_FLOW "NETLIST_TYPE_VERILOG"
*DIVIDER /
*DELIMITER :
*BUS_DELIMITER [ ]
*T_UNIT 1 PS
*C_UNIT 1 FF
*R_UNIT 1 KOHM
*L_UNIT 1 UH

*D_NET TAUNET_13 1.7439
*CONN
*P n1996 I
*I TAUGATE_13:A I
*CAP
1 n1996 0.2611
2 TAUNET_13:1 0.4098
3 TAUNET_13:2 0.5009
4 TAUNET_13:3 0.2843
5 TAUGATE_13:A 0.2878
*RES
2 n1996 TAUNET_13:1 0.1659
3 TAUNET_13:1 TAUNET_13:2 0.2742
4 TAUNET_13:2 TAUNET_13:3 0.3494
5 TAUNET_13:3 TAUGATE_13:A 0.1485
*END

*D_NET TAUNET_12 1.3760
*CONN
*P n19 I
*I TAUGATE_12:A I
*CAP
1 n19 0.2110
2 TAUNET_12:1 0.3070
3 TAUNET_12:2 0.3583
4 TAUNET_12:3 0.1395
5 TAUNET_12:4 0.0646
6 TAUNET_12:5 0.0794
7 TAUGATE_12:A 0.2161
*RES
2 n19 TAUNET_12:1 0.1614
3 TAUNET_12:1 TAUNET_12:2 0.3312
4 TAUNET_12:2 TAUNET_12:3 0.3755
5 TAUNET_12:3 TAUNET_12:4 0.4644
6 TAUNET_12:4 TAUNET_12:5 0.4559
7 TAUNET_12:5 TAUGATE_12:A 0.4050
*END

*D_NET net_223 1.9117
*CONN
*I TAUGATE_34:Z O
*I inst_340:A1 I
*I inst_114:A1 I
*CAP
1 TAUGATE_34:Z 0.1670
2 net_223:1 0.2440
3 net_223:2 0.0332
4 inst_340:A1 0.0406
5 net_223:3 0.3706
6 net_223:4 0.0740
7 net_223:5 0.4871
8 inst_114:A1 0.4951
*RES
2 TAUGATE_34:Z net_223:1 0.2732
3 net_223:1 net_223:2 0.0073
4 net_223:2 inst_340:A1 0.1308
5 net_223:1 net_223:3 0.4125
6 net_223:3 net_223:4 0.0565
7 net_223:4 net_223:5 0.1285
8 net_223:5 inst_114:A1 0.0292
*END

*D_NET net_47 2.3577
*CONN
*I TAUGATE_20:Z O
*I inst_133:A2 I
*CAP
1 TAUGATE_20:Z 0.4507
2 net_47:1 0.3995
3 net_47:2 0.3845
4 net_47:3 0.4708
5 net_47:4 0.3056
6 inst_133:A2 0.3464
*RES
2 TAUGATE_20:Z net_47:1 0.0305
3 net_47:1 net_47:2 0.2383
4 net_47:2 net_47:3 0.4020
5 net_47:3 net_47:4 0.2529
6 net_47:4 inst_133:A2 0.2665
*END

*D_NET n123 0.9086
*CONN
*I TAUGATE_35:Z O
*I inst_248:A I
*CAP
1 TAUGATE_35:Z 0.1977
2 n123:1 0.3276
3 inst_248:A 0.3833
*RES
2 TAUGATE_35:Z n123:1 0.3292
3 n123:1 inst_248:A 0.0716
*END

*D_NET net_235 1.3846
*CONN
*I TAUGATE_17:Z O
*I inst_87:A1 I
*CAP
1 TAUGATE_17:Z 0.1922
2 net_235:1 0.1322
3 net_235:2 0.1905
4 net_235:3 0.4017
5 inst_87:A1 0.4680
*RES
2 TAUGATE_17:Z net_235:1 0.2976
3 net_235:1 net_235:2 0.2331
4 net_235:2 net_235:3 0.2927
5 net_235:3 inst_87:A1 0.3943
*END

*D_NET net_152 1.0845
*CONN
*I TAUGATE_24:Z O
*I inst_106:A1 I
*CAP
1 TAUGATE_24:Z 0.1955
2 net_152:1 0.4889
3 net_152:2 0.0703
4 inst_106:A1 0.3298
*RES
2 TAUGATE_24:Z net_152:1 0.4131
3 net_152:1 net_152:2 0.3310
4 net_152:2 inst_106:A1 0.2621
*END

*D_NET TAUNET_1 0.9833
*CONN
*I TAUGATE_50:Z O
*I TAUGATE_1:A I
*CAP
1 TAUGATE_50:Z 0.1808
2 TAUNET_1:1 0.3990
3 TAUGATE_1:A 0.4035
*RES
2 TAUGATE_50:Z TAUNET_1:1 0.0219
3 TAUNET_1:1 TAUGATE_1:A 0.0830
*END

*D_NET n4 1.6212
*CONN
*I TAUGATE_59:Z O
*I inst_272:A I
*CAP
1 TAUGATE_59:Z 0.1250
2 n4:1 0.4976
3 n4:2 0.3591
4 n4:3 0.2780
5 n4:4 0.2022
6 inst_272:A 0.1593
*RES
2 TAUGATE_59:Z n4:1 0.4382
3 n4:1 n4:2 0.3498
4 n4:2 n4:3 0.4055
5 n4:3 n4:4 0.4519
6 n4:4 inst_272:A 0.4658
*END

*D_NET n19 1.1222
*CONN
*I TAUGATE_12:Z O
*I inst_255:A I
*CAP
1 TAUGATE_12:Z 0.4019
2 n19:1 0.2503
3 inst_255:A 0.4700
*RES
2 TAUGATE_12:Z n19:1 0.3789
3 n19:1 inst_255:A 0.3545
*END

*D_NET TAUNET_35 1.0398
*CONN
*P n123 I
*I TAUGATE_35:A I
*CAP
1 n123 0.4316
2 TAUNET_35:1 0.4734
3 TAUNET_35:2 0.0376
4 TAUGATE_35:A 0.0972
*RES
2 n123 TAUNET_35:1 0.3594
3 TAUNET_35:1 TAUNET_35:2 0.0525
4 TAUNET_35:2 TAUGATE_35:A 0.3248
*END

*D_NET net_24 1.7532
*CONN
*I TAUGATE_23:Z O
*I inst_130:A1 I
*CAP
1 TAUGATE_23:Z 0.1267
2 net_24:1 0.2434
3 net_24:2 0.3726
4 net_24:3 0.2980
5 net_24:4 0.2454
6 inst_130:A1 0.4670
*RES
2 TAUGATE_23:Z net_24:1 0.1921
3 net_24:1 net_24:2 0.1376
4 net_24:2 net_24:3 0.4443
5 net_24:3 net_24:4 0.1288
6 net_24:4 inst_130:A1 0.3022
*END

*D_NET net_129 4.7832
*CONN
*I TAUGATE_11:Z O
*I inst_259:B I
*I inst_44:A I
*I inst_99:A2 I
*I inst_336:A2 I
*CAP
1 TAUGATE_11:Z 0.0668
2 net_129:1 0.4131
3 net_129:2 0.4004
4 net_129:3 0.4814
5 net_129:4 0.1341
6 inst_44:A 0.3915
7 net_129:5 0.3147
8 net_129:6 0.2761
9 inst_259:B 0.3643
10 net_129:7 0.2731
11 net_129:8 0.1525
12 net_129:9 0.0518
13 net_129:10 0.2548
14 inst_99:A2 0.2154
15 net_129:11 0.0917
16 net_129:12 0.4230
17 net_129:13 0.1494
18 inst_336:A2 0.3290
*RES
2 TAUGATE_11:Z net_129:1 0.0282
3 net_129:1 net_129:2 0.3089
4 net_129:2 net_129:3 0.0253
5 net_129:3 net_129:4 0.3105
6 net_129:4 inst_44:A 0.1881
7 net_129:2 net_129:5 0.2288
8 net_129:5 net_129:6 0.0666
9 net_129:6 inst_259:B 0.3854
10 net_129:5 net_129:7 0.4921
11 net_129:7 net_129:8 0.1648
12 net_129:8 net_129:9 0.1855
13 net_129:9 net_129:10 0.0112
14 net_129:10 inst_99:A2 0.3530
15 net_129:3 net_129:11 0.1620
16 net_129:11 net_129:12 0.0029
17 net_129:12 net_129:13 0.2883
18 net_129:13 inst_336:A2 0.1903
*END

*D_NET n311 0.6766
*CONN
*I TAUGATE_16:Z O
*P n311 O
*CAP
1 TAUGATE_16:Z 0.3484
2 n311:1 0.1392
3 n311 0.1891
*RES
2 TAUGATE_16:Z n311:1 0.0464
3 n311:1 n311 0.0364
*END

*D_NET net_148 0.6214
*CONN
*I TAUGATE_42:Z O
*I inst_50:B I
*CAP
1 TAUGATE_42:Z 0.4104
2 net_148:1 0.0510
3 inst_50:B 0.1600
*RES
2 TAUGATE_42:Z net_148:1 0.1748
3 net_148:1 inst_50:B 0.4787
*END

*D_NET TAUNET_46 1.6741
*CONN
*I inst_329:ZN O
*I TAUGATE_46:A I
*CAP
1 inst_329:ZN 0.4606
2 TAUNET_46:1 0.4657
3 TAUNET_46:2 0.3595
4 TAUNET_46:3 0.2471
5 TAUNET_46:4 0.0832
6 TAUGATE_46:A 0.0580
*RES
2 inst_329:ZN TAUNET_46:1 0.3736
3 TAUNET_46:1 TAUNET_46:2 0.0395
4 TAUNET_46:2 TAUNET_46:3 0.3644
5 TAUNET_46:3 TAUNET_46:4 0.0829
6 TAUNET_46:4 TAUGATE_46:A 0.1977
*END

*D_NET net_205 4.6197
*CONN
*I TAUGATE_45:Z O
*I inst_70:A2 I
*I inst_112:A2 I
*I inst_71:A2 I
*I inst_111:A2 I
*CAP
1 TAUGATE_45:Z 0.3877
2 net_205:1 0.4950
3 net_205:2 0.0413
4 net_205:3 0.4651
5 net_205:4 0.4065
6 inst_111:A2 0.3164
7 net_205:5 0.1533
8 net_205:6 0.4091
9 net_205:7 0.2613
10 inst_112:A2 0.3587
11 net_205:8 0.1014
12 net_205:9 0.0283
13 inst_71:A2 0.2763
14 net_205:10 0.3404
15 net_205:11 0.1317
16 net_205:12 0.3617
17 inst_70:A2 0.0856
*RES
2 TAUGATE_45:Z net_205:1 0.3513
3 net_205:1 net_205:2 0.1165
4 net_205:2 net_205:3 0.0986
5 net_205:3 net_205:4 0.2243
6 net_205:4 inst_111:A2 0.1286
7 net_205:2 net_205:5 0.1869
8 net_205:5 net_205:6 0.4974
9 net_205:6 net_205:7 0.3047
10 net_205:7 inst_112:A2 0.1200
11 net_205:2 net_205:8 0.2945
12 net_205:8 net_205:9 0.3177
13 net_205:9 inst_71:A2 0.2101
14 net_205:7 net_205:10 0.3629
15 net_205:10 net_205:11 0.2821
16 net_205:11 net_205:12 0.3900
17 net_205:12 inst_70:A2 0.0557
*END

*D_NET TAUNET_24 1.5353
*CONN
*I inst_101:ZN O
*I TAUGATE_24:A I
*CAP
1 inst_101:ZN 0.2716
2 TAUNET_24:1 0.1079
3 TAUNET_24:2 0.3323
4 TAUNET_24:3 0.2907
5 TAUNET_24:4 0.0362
6 TAUGATE_24:A 0.4966
*RES
2 inst_101:ZN TAUNET_24:1 0.4101
3 TAUNET_24:1 TAUNET_24:2 0.2702
4 TAUNET_24:2 TAUNET_24:3 0.2135
5 TAUNET_24:3 TAUNET_24:4 0.0419
6 TAUNET_24:4 TAUGATE_24:A 0.2773
*END

*D_NET TAUNET_16 2.1160
*CONN
*I inst_314:ZN O
*I TAUGATE_16:A I
*CAP
1 inst_314:ZN 0.0485
2 TAUNET_16:1 0.4262
3 TAUNET_16:2 0.2009
4 TAUNET_16:3 0.3114
5 TAUNET_16:4 0.3090
6 TAUNET_16:5 0.3972
7 TAUGATE_16:A 0.4228
*RES
2 inst_314:ZN TAUNET_16:1 0.2443
3 TAUNET_16:1 TAUNET_16:2 0.2458
4 TAUNET_16:2 TAUNET_16:3 0.3734
5 TAUNET_16:3 TAUNET_16:4 0.1567
6 TAUNET_16:4 TAUNET_16:5 0.1247
7 TAUNET_16:5 TAUGATE_16:A 0.2439
*END

*D_NET TAUNET_31 1.4807
*CONN
*P n107 I
*I TAUGATE_31:A I
*CAP
1 n107 0.4474
2 TAUNET_31:1 0.0472
3 TAUNET_31:2 0.4436
4 TAUNET_31:3 0.1981
5 TAUNET_31:4 0.3275
6 TAUGATE_31:A 0.0169
*RES
2 n107 TAUNET_31:1 0.4026
3 TAUNET_31:1 TAUNET_31:2 0.4684
4 TAUNET_31:2 TAUNET_31:3 0.2490
5 TAUNET_31:3 TAUNET_31:4 0.0579
6 TAUNET_31:4 TAUGATE_31:A 0.0423
*END

*D_NET TAUNET_25 1.8957
*CONN
*I inst_182:ZN O
*I TAUGATE_25:A I
*CAP
1 inst_182:ZN 0.4278
2 TAUNET_25:1 0.4796
3 TAUNET_25:2 0.3740
4 TAUNET_25:3 0.1554
5 TAUNET_25:4 0.0209
6 TAUGATE_25:A 0.4380
*RES
2 inst_182:ZN TAUNET_25:1 0.4130
3 TAUNET_25:1 TAUNET_25:2 0.4990
4 TAUNET_25:2 TAUNET_25:3 0.2134
5 TAUNET_25:3 TAUNET_25:4 0.1115
6 TAUNET_25:4 TAUGATE_25:A 0.4947
*END

*D_NET TAUNET_27 2.2597
*CONN
*I inst_79:ZN O
*I TAUGATE_27:A I
*CAP
1 inst_79:ZN 0.2854
2 TAUNET_27:1 0.2438
3 TAUNET_27:2 0.2969
4 TAUNET_27:3 0.3091
5 TAUNET_27:4 0.5006
6 TAUNET_27:5 0.2264
7 TAUGATE_27:A 0.3973
*RES
2 inst_79:ZN TAUNET_27:1 0.2044
3 TAUNET_27:1 TAUNET_27:2 0.1531
4 TAUNET_27:2 TAUNET_27:3 0.3886
5 TAUNET_27:3 TAUNET_27:4 0.2618
6 TAUNET_27:4 TAUNET_27:5 0.2468
7 TAUNET_27:5 TAUGATE_27:A 0.4002
*END

*D_NET TAUNET_28 0.7125
*CONN
*P n67 I
*I TAUGATE_28:A I
*CAP
1 n67 0.1857
2 TAUNET_28:1 0.0882
3 TAUGATE_28:A 0.4386
*RES
2 n67 TAUNET_28:1 0.2715
3 TAUNET_28:1 TAUGATE_28:A 0.0199
*END

*D_NET TAUNET_57 0.5520
*CONN
*P n93 I
*I TAUGATE_57:A I
*CAP
1 n93 0.1459
2 TAUNET_57:1 0.1026
3 TAUNET_57:2 0.1939
4 TAUGATE_57:A 0.1095
*RES
2 n93 TAUNET_57:1 0.0212
3 TAUNET_57:1 TAUNET_57:2 0.1417
4 TAUNET_57:2 TAUGATE_57:A 0.2190
*END

*D_NET TAUNET_37 1.5644
*CONN
*I inst_93:ZN O
*I TAUGATE_37:A I
*CAP
1 inst_93:ZN 0.1138
2 TAUNET_37:1 0.3663
3 TAUNET_37:2 0.2540
4 TAUNET_37:3 0.0526
5 TAUNET_37:4 0.2388
6 TAUNET_37:5 0.1787
7 TAUGATE_37:A 0.3603
*RES
2 inst_93:ZN TAUNET_37:1 0.0603
3 TAUNET_37:1 TAUNET_37:2 0.0863
4 TAUNET_37:2 TAUNET_37:3 0.3102
5 TAUNET_37:3 TAUNET_37:4 0.1239
6 TAUNET_37:4 TAUNET_37:5 0.2473
7 TAUNET_37:5 TAUGATE_37:A 0.0055
*END

*D_NET TAUNET_32 1.2459
*CONN
*P n2430 I
*I TAUGATE_32:A I
*CAP
1 n2430 0.2412
2 TAUNET_32:1 0.4441
3 TAUNET_32:2 0.4218
4 TAUNET_32:3 0.0848
5 TAUNET_32:4 0.0266
6 TAUGATE_32:A 0.0274
*RES
2 n2430 TAUNET_32:1 0.4218
3 TAUNET_32:1 TAUNET_32:2 0.2061
4 TAUNET_32:2 TAUNET_32:3 0.2110
5 TAUNET_32:3 TAUNET_32:4 0.4583
6 TAUNET_32:4 TAUGATE_32:A 0.3985
*END

*D_NET TAUNET_38 1.9898
*CONN
*P n100 I
*I TAUGATE_38:A I
*CAP
1 n100 0.0725
2 TAUNET_38:1 0.3124
3 TAUNET_38:2 0.3685
4 TAUNET_38:3 0.4317
5 TAUNET_38:4 0.1801
6 TAUNET_38:5 0.2826
7 TAUGATE_38:A 0.3420
*RES
2 n100 TAUNET_38:1 0.0965
3 TAUNET_38:1 TAUNET_38:2 0.2555
4 TAUNET_38:2 TAUNET_38:3 0.1304
5 TAUNET_38:3 TAUNET_38:4 0.3675
6 TAUNET_38:4 TAUNET_38:5 0.4634
7 TAUNET_38:5 TAUGATE_38:A 0.2869
*END

*D_NET n384 0.5511
*CONN
*I TAUGATE_36:Z O
*P n384 O
*CAP
1 TAUGATE_36:Z 0.1182
2 n384:1 0.0608
3 n384 0.3721
*RES
2 TAUGATE_36:Z n384:1 0.4648
3 n384:1 n384 0.2376
*END

*D_NET TAUNET_40 0.8353
*CONN
*P n2105 I
*I TAUGATE_40:A I
*CAP
1 n2105 0.3081
2 TAUNET_40:1 0.0264
3 TAUNET_40:2 0.2502
4 TAUGATE_40:A 0.2506
*RES
2 n2105 TAUNET_40:1 0.4486
3 TAUNET_40:1 TAUNET_40:2 0.0641
4 TAUNET_40:2 TAUGATE_40:A 0.0138
*END

*D_NET TAUNET_20 0.7959
*CONN
*I inst_193:ZN O
*I TAUGATE_20:A I
*CAP
1 inst_193:ZN 0.0204
2 TAUNET_20:1 0.1001
3 TAUNET_20:2 0.2747
4 TAUNET_20:3 0.1704
5 TAUGATE_20:A 0.2303
*RES
2 inst_193:ZN TAUNET_20:1 0.0121
3 TAUNET_20:1 TAUNET_20:2 0.0620
4 TAUNET_20:2 TAUNET_20:3 0.0267
5 TAUNET_20:3 TAUGATE_20:A 0.1278
*END

*D_NET net_264 1.5058
*CONN
*I TAUGATE_46:Z O
*I inst_139:A2 I
*CAP
1 TAUGATE_46:Z 0.3621
2 net_264:1 0.3490
3 net_264:2 0.4751
4 inst_139:A2 0.3195
*RES
2 TAUGATE_46:Z net_264:1 0.4748
3 net_264:1 net_264:2 0.2505
4 net_264:2 inst_139:A2 0.2036
*END

*D_NET n2105 15.3974
*CONN
*I TAUGATE_40:Z O
*I inst_253:S I
*I inst_155:A2 I
*I inst_92:A2 I
*I inst_252:S I
*I inst_147:A2 I
*I inst_154:A2 I
*I inst_285:A I
*I inst_150:A2 I
*I inst_153:A2 I
*I inst_156:A2 I
*I inst_91:A1 I
*I inst_217:A1 I
*CAP
1 TAUGATE_40:Z 0.0185
2 n2105:1 0.2437
3 n2105:2 0.3641
4 n2105:3 0.1411
5 n2105:4 0.2452
6 inst_156:A2 0.2723
7 n2105:5 0.0937
8 n2105:6 0.2944
9 inst_155:A2 0.3987
10 n2105:7 0.1157
11 n2105:8 0.1901
12 n2105:9 0.2138
13 n2105:10 0.5008
14 n2105:11 0.2979
15 inst_92:A2 0.3428
16 n2105:12 0.3676
17 n2105:13 0.1603
18 n2105:14 0.4423
19 n2105:15 0.1159
20 n2105:16 0.4527
21 inst_252:S 0.1465
22 n2105:17 0.1861
23 n2105:18 0.4367
24 inst_147:A2 0.3452
25 n2105:19 0.4407
26 n2105:20 0.4978
27 inst_154:A2 0.2563
28 n2105:21 0.1679
29 n2105:22 0.2053
30 n2105:23 0.2140
31 inst_285:A 0.3306
32 n2105:24 0.4766
33 n2105:25 0.0589
34 n2105:26 0.0962
35 n2105:27 0.2415
36 n2105:28 0.1750
37 inst_150:A2 0.4103
38 n2105:29 0.0491
39 n2105:30 0.4137
40 n2105:31 0.3046
41 inst_153:A2 0.2987
42 n2105:32 0.3629
43 n2105:33 0.0787
44 n2105:34 0.2007
45 n2105:35 0.2971
46 n2105:36 0.4025
47 inst_253:S 0.5010
48 n2105:37 0.3761
49 n2105:38 0.0616
50 n2105:39 0.4298
51 inst_91:A1 0.2857
52 n2105:40 0.1284
53 n2105:41 0.0036
54 n2105:42 0.1731
55 n2105:43 0.2737
56 n2105:44 0.3095
57 inst_217:A1 0.4895
*RES
2 TAUGATE_40:Z n2105:1 0.2079
3 n2105:1 n2105:2 0.2449
4 n2105:2 n2105:3 0.0406
5 n2105:3 n2105:4 0.0917
6 n2105:4 inst_156:A2 0.0078
7 n2105:2 n2105:5 0.0209
8 n2105:5 n2105:6 0.1182
9 n2105:6 inst_155:A2 0.1067
10 n2105:5 n2105:7 0.2325
11 n2105:7 n2105:8 0.2733
12 n2105:8 n2105:9 0.1266
13 n2105:9 n2105:10 0.3814
14 n2105:10 n2105:11 0.1363
15 n2105:11 inst_92:A2 0.3277
16 n2105:7 n2105:12 0.1463
17 n2105:12 n2105:13 0.4621
18 n2105:13 n2105:14 0.4065
19 n2105:14 n2105:15 0.0227
20 n2105:15 n2105:16 0.2236
21 n2105:16 inst_252:S 0.4114
22 n2105:2 n2105:17 0.0313
23 n2105:17 n2105:18 0.1217
24 n2105:18 inst_147:A2 0.0111
25 n2105:2 n2105:19 0.2595
26 n2105:19 n2105:20 0.2603
27 n2105:20 inst_154:A2 0.2874
28 n2105:13 n2105:21 0.1569
29 n2105:21 n2105:22 0.2580
30 n2105:22 n2105:23 0.2138
31 n2105:23 inst_285:A 0.4796
32 n2105:22 n2105:24 0.0845
33 n2105:24 n2105:25 0.1888
34 n2105:25 n2105:26 0.1436
35 n2105:26 n2105:27 0.1762
36 n2105:27 n2105:28 0.4748
37 n2105:28 inst_150:A2 0.0806
38 n2105:2 n2105:29 0.2640
39 n2105:29 n2105:30 0.1831
40 n2105:30 n2105:31 0.4110
41 n2105:31 inst_153:A2 0.0191
42 n2105:22 n2105:32 0.3538
43 n2105:32 n2105:33 0.4649
44 n2105:33 n2105:34 0.0482
45 n2105:34 n2105:35 0.1062
46 n2105:35 n2105:36 0.2963
47 n2105:36 inst_253:S 0.4911
48 n2105:15 n2105:37 0.2634
49 n2105:37 n2105:38 0.0470
50 n2105:38 n2105:39 0.0745
51 n2105:39 inst_91:A1 0.1738
52 n2105:35 n2105:40 0.4033
53 n2105:40 n2105:41 0.2734
54 n2105:41 n2105:42 0.3461
55 n2105:42 n2105:43 0.3729
56 n2105:43 n2105:44 0.0418
57 n2105:44 inst_217:A1 0.3671
*END

*D_NET n93 1.1766
*CONN
*I TAUGATE_57:Z O
*I inst_190:A1 I
*CAP
1 TAUGATE_57:Z 0.1458
2 n93:1 0.0683
3 n93:2 0.2135
4 n93:3 0.4484
5 n93:4 0.1379
6 n93:5 0.1139
7 inst_190:A1 0.0489
*RES
2 TAUGATE_57:Z n93:1 0.0861
3 n93:1 n93:2 0.1477
4 n93:2 n93:3 0.4806
5 n93:3 n93:4 0.3473
6 n93:4 n93:5 0.1114
7 n93:5 inst_190:A1 0.0198
*END

*D_NET TAUNET_14 1.3546
*CONN
*I inst_115:ZN O
*I TAUGATE_14:A I
*CAP
1 inst_115:ZN 0.1100
2 TAUNET_14:1 0.3290
3 TAUNET_14:2 0.1592
4 TAUNET_14:3 0.4236
5 TAUGATE_14:A 0.3328
*RES
2 inst_115:ZN TAUNET_14:1 0.1906
3 TAUNET_14:1 TAUNET_14:2 0.5003
4 TAUNET_14:2 TAUNET_14:3 0.4347
5 TAUNET_14:3 TAUGATE_14:A 0.3044
*END

*D_NET n89 1.5228
*CONN
*I TAUGATE_22:Z O
*I inst_187:A1 I
*CAP
1 TAUGATE_22:Z 0.0096
2 n89:1 0.2377
3 n89:2 0.2571
4 n89:3 0.3610
5 n89:4 0.0042
6 n89:5 0.2690
7 inst_187:A1 0.3841
*RES
2 TAUGATE_22:Z n89:1 0.3400
3 n89:1 n89:2 0.2352
4 n89:2 n89:3 0.3112
5 n89:3 n89:4 0.1345
6 n89:4 n89:5 0.4134
7 n89:5 inst_187:A1 0.0741
*END

*D_NET TAUNET_49 0.9047
*CONN
*P n105 I
*I TAUGATE_49:A I
*CAP
1 n105 0.4891
2 TAUNET_49:1 0.2122
3 TAUGATE_49:A 0.2034
*RES
2 n105 TAUNET_49:1 0.1253
3 TAUNET_49:1 TAUGATE_49:A 0.2112
*END

*D_NET net_170 0.7145
*CONN
*I TAUGATE_55:Z O
*I inst_177:A1 I
*CAP
1 TAUGATE_55:Z 0.1106
2 net_170:1 0.2644
3 inst_177:A1 0.3395
*RES
2 TAUGATE_55:Z net_170:1 0.4160
3 net_170:1 inst_177:A1 0.1311
*END

*D_NET net_83 2.9176
*CONN
*I TAUGATE_37:Z O
*I inst_208:A2 I
*I inst_209:A2 I
*I inst_210:A2 I
*CAP
1 TAUGATE_37:Z 0.0535
2 net_83:1 0.2939
3 inst_209:A2 0.2177
4 net_83:2 0.1825
5 net_83:3 0.4154
6 net_83:4 0.4205
7 inst_208:A2 0.1921
8 net_83:5 0.0450
9 net_83:6 0.3586
10 net_83:7 0.1804
11 net_83:8 0.2132
12 inst_210:A2 0.3448
*RES
2 TAUGATE_37:Z net_83:1 0.0520
3 net_83:1 inst_209:A2 0.1787
4 net_83:1 net_83:2 0.3303
5 net_83:2 net_83:3 0.0500
6 net_83:3 net_83:4 0.3450
7 net_83:4 inst_208:A2 0.2552
8 net_83:2 net_83:5 0.2539
9 net_83:5 net_83:6 0.0169
10 net_83:6 net_83:7 0.2910
11 net_83:7 net_83:8 0.3418
12 net_83:8 inst_210:A2 0.0277
*END

*D_NET n105 0.7138
*CONN
*I TAUGATE_49:Z O
*I inst_159:A2 I
*CAP
1 TAUGATE_49:Z 0.0700
2 n105:1 0.4916
3 n105:2 0.0258
4 n105:3 0.0722
5 n105:4 0.0268
6 inst_159:A2 0.0274
*RES
2 TAUGATE_49:Z n105:1 0.0955
3 n105:1 n105:2 0.0758
4 n105:2 n105:3 0.0730
5 n105:3 n105:4 0.2996
6 n105:4 inst_159:A2 0.1500
*END

*D_NET TAUNET_50 1.1459
*CONN
*P n108 I
*I TAUGATE_50:A I
*CAP
1 n108 0.0605
2 TAUNET_50:1 0.4347
3 TAUNET_50:2 0.2976
4 TAUGATE_50:A 0.3531
*RES
2 n108 TAUNET_50:1 0.0316
3 TAUNET_50:1 TAUNET_50:2 0.1823
4 TAUNET_50:2 TAUGATE_50:A 0.0755
*END

*D_NET TAUNET_23 1.1637
*CONN
*I inst_152:ZN O
*I TAUGATE_23:A I
*CAP
1 inst_152:ZN 0.3515
2 TAUNET_23:1 0.4269
3 TAUNET_23:2 0.0493
4 TAUNET_23:3 0.0341
5 TAUGATE_23:A 0.3020
*RES
2 inst_152:ZN TAUNET_23:1 0.3389
3 TAUNET_23:1 TAUNET_23:2 0.4000
4 TAUNET_23:2 TAUNET_23:3 0.0188
5 TAUNET_23:3 TAUGATE_23:A 0.4709
*END

*D_NET n100 0.8262
*CONN
*I TAUGATE_38:Z O
*I inst_163:A2 I
*CAP
1 TAUGATE_38:Z 0.0122
2 n100:1 0.0936
3 n100:2 0.3051
4 n100:3 0.1197
5 inst_163:A2 0.2956
*RES
2 TAUGATE_38:Z n100:1 0.2210
3 n100:1 n100:2 0.0970
4 n100:2 n100:3 0.2798
5 n100:3 inst_163:A2 0.3150
*END

*D_NET TAUNET_39 1.2664
*CONN
*I inst_18:Z O
*I TAUGATE_39:A I
*CAP
1 inst_18:Z 0.2108
2 TAUNET_39:1 0.0161
3 TAUNET_39:2 0.2047
4 TAUNET_39:3 0.3729
5 TAUNET_39:4 0.0610
6 TAUGATE_39:A 0.4010
*RES
2 inst_18:Z TAUNET_39:1 0.2910
3 TAUNET_39:1 TAUNET_39:2 0.3768
4 TAUNET_39:2 TAUNET_39:3 0.3083
5 TAUNET_39:3 TAUNET_39:4 0.1250
6 TAUNET_39:4 TAUGATE_39:A 0.3526
*END

*D_NET TAUNET_51 1.6292
*CONN
*I inst_278:Z O
*I TAUGATE_51:A I
*CAP
1 inst_278:Z 0.3144
2 TAUNET_51:1 0.0820
3 TAUNET_51:2 0.2174
4 TAUNET_51:3 0.3638
5 TAUNET_51:4 0.4097
6 TAUGATE_51:A 0.2418
*RES
2 inst_278:Z TAUNET_51:1 0.4080
3 TAUNET_51:1 TAUNET_51:2 0.3118
4 TAUNET_51:2 TAUNET_51:3 0.4981
5 TAUNET_51:3 TAUNET_51:4 0.3134
6 TAUNET_51:4 TAUGATE_51:A 0.4059
*END

*D_NET TAUNET_19 0.9494
*CONN
*I inst_20:Z O
*I TAUGATE_19:A I
*CAP
1 inst_20:Z 0.0910
2 TAUNET_19:1 0.3093
3 TAUNET_19:2 0.3342
4 TAUGATE_19:A 0.2150
*RES
2 inst_20:Z TAUNET_19:1 0.0109
3 TAUNET_19:1 TAUNET_19:2 0.1830
4 TAUNET_19:2 TAUGATE_19:A 0.2298
*END

*D_NET TAUNET_34 0.1587
*CONN
*I inst_44:ZN O
*I TAUGATE_34:A I
*CAP
1 inst_44:ZN 0.0044
2 TAUNET_34:1 0.0476
3 TAUNET_34:2 0.0521
4 TAUGATE_34:A 0.0546
*RES
2 inst_44:ZN TAUNET_34:1 0.0043
3 TAUNET_34:1 TAUNET_34:2 0.2737
4 TAUNET_34:2 TAUGATE_34:A 0.4724
*END

*D_NET TAUNET_54 1.0994
*CONN
*P n127 I
*I TAUGATE_54:A I
*CAP
1 n127 0.2426
2 TAUNET_54:1 0.2784
3 TAUNET_54:2 0.2008
4 TAUGATE_54:A 0.3776
*RES
2 n127 TAUNET_54:1 0.2937
3 TAUNET_54:1 TAUNET_54:2 0.0093
4 TAUNET_54:2 TAUGATE_54:A 0.2822
*END

*D_NET TAUNET_44 1.0927
*CONN
*P n1976 I
*I TAUGATE_44:A I
*CAP
1 n1976 0.0309
2 TAUNET_44:1 0.3809
3 TAUNET_44:2 0.3567
4 TAUGATE_44:A 0.3242
*RES
2 n1976 TAUNET_44:1 0.2336
3 TAUNET_44:1 TAUNET_44:2 0.3863
4 TAUNET_44:2 TAUGATE_44:A 0.2365
*END

*D_NET net_0 1.1858
*CONN
*I TAUGATE_25:Z O
*I inst_135:A2 I
*CAP
1 TAUGATE_25:Z 0.3572
2 net_0:1 0.2185
3 net_0:2 0.2266
4 net_0:3 0.2538
5 inst_135:A2 0.1297
*RES
2 TAUGATE_25:Z net_0:1 0.4791
3 net_0:1 net_0:2 0.2417
4 net_0:2 net_0:3 0.2444
5 net_0:3 inst_135:A2 0.4262
*END

*D_NET net_276 1.0967
*CONN
*I TAUGATE_26:Z O
*I inst_142:A4 I
*CAP
1 TAUGATE_26:Z 0.3015
2 net_276:1 0.3035
3 net_276:2 0.4053
4 inst_142:A4 0.0863
*RES
2 TAUGATE_26:Z net_276:1 0.2362
3 net_276:1 net_276:2 0.1365
4 net_276:2 inst_142:A4 0.0277
*END

*D_NET n1976 2.2941
*CONN
*I TAUGATE_44:Z O
*I inst_109:A1 I
*I inst_43:A I
*I inst_24:A I
*CAP
1 TAUGATE_44:Z 0.2912
2 n1976:1 0.3711
3 n1976:2 0.0512
4 inst_24:A 0.1351
5 n1976:3 0.1146
6 n1976:4 0.3234
7 inst_43:A 0.4610
8 n1976:5 0.3877
9 inst_109:A1 0.1588
*RES
2 TAUGATE_44:Z n1976:1 0.0984
3 n1976:1 n1976:2 0.0368
4 n1976:2 inst_24:A 0.4376
5 n1976:1 n1976:3 0.4832
6 n1976:3 n1976:4 0.2776
7 n1976:4 inst_43:A 0.3781
8 n1976:4 n1976:5 0.3738
9 n1976:5 inst_109:A1 0.4556
*END

*D_NET TAUNET_43 1.0723
*CONN
*I inst_218:ZN O
*I TAUGATE_43:A I
*CAP
1 inst_218:ZN 0.0020
2 TAUNET_43:1 0.3010
3 TAUNET_43:2 0.2164
4 TAUNET_43:3 0.4372
5 TAUGATE_43:A 0.1158
*RES
2 inst_218:ZN TAUNET_43:1 0.1153
3 TAUNET_43:1 TAUNET_43:2 0.3810
4 TAUNET_43:2 TAUNET_43:3 0.1100
5 TAUNET_43:3 TAUGATE_43:A 0.1662
*END

*D_NET TAUNET_56 1.3952
*CONN
*I inst_310:ZN O
*I TAUGATE_56:A I
*CAP
1 inst_310:ZN 0.2541
2 TAUNET_56:1 0.4625
3 TAUNET_56:2 0.2343
4 TAUNET_56:3 0.0981
5 TAUGATE_56:A 0.3461
*RES
2 inst_310:ZN TAUNET_56:1 0.2382
3 TAUNET_56:1 TAUNET_56:2 0.4109
4 TAUNET_56:2 TAUNET_56:3 0.0945
5 TAUNET_56:3 TAUGATE_56:A 0.2326
*END

*D_NET TAUNET_55 0.7650
*CONN
*I inst_235:ZN O
*I TAUGATE_55:A I
*CAP
1 inst_235:ZN 0.2674
2 TAUNET_55:1 0.0414
3 TAUNET_55:2 0.2455
4 TAUNET_55:3 0.1970
5 TAUGATE_55:A 0.0138
*RES
2 inst_235:ZN TAUNET_55:1 0.4527
3 TAUNET_55:1 TAUNET_55:2 0.3131
4 TAUNET_55:2 TAUNET_55:3 0.4392
5 TAUNET_55:3 TAUGATE_55:A 0.4048
*END

*D_NET n2451 1.7566
*CONN
*I TAUGATE_18:Z O
*I inst_3:B I
*CAP
1 TAUGATE_18:Z 0.3283
2 n2451:1 0.4199
3 n2451:2 0.3736
4 n2451:3 0.3306
5 inst_3:B 0.3042
*RES
2 TAUGATE_18:Z n2451:1 0.1317
3 n2451:1 n2451:2 0.1481
4 n2451:2 n2451:3 0.2485
5 n2451:3 inst_3:B 0.2201
*END

*D_NET TAUNET_11 0.7087
*CONN
*I inst_171:ZN O
*I TAUGATE_11:A I
*CAP
1 inst_171:ZN 0.3013
2 TAUNET_11:1 0.0262
3 TAUGATE_11:A 0.3812
*RES
2 inst_171:ZN TAUNET_11:1 0.0656
3 TAUNET_11:1 TAUGATE_11:A 0.1550
*END

*D_NET TAUNET_33 1.3180
*CONN
*I inst_106:ZN O
*I TAUGATE_33:A I
*CAP
1 inst_106:ZN 0.1418
2 TAUNET_33:1 0.3805
3 TAUNET_33:2 0.2523
4 TAUNET_33:3 0.0497
5 TAUGATE_33:A 0.4938
*RES
2 inst_106:ZN TAUNET_33:1 0.3913
3 TAUNET_33:1 TAUNET_33:2 0.2131
4 TAUNET_33:2 TAUNET_33:3 0.3201
5 TAUNET_33:3 TAUGATE_33:A 0.0320
*END

*D_NET n86 2.1105
*CONN
*I TAUGATE_48:Z O
*I inst_188:A1 I
*CAP
1 TAUGATE_48:Z 0.3378
2 n86:1 0.2454
3 n86:2 0.4527
4 n86:3 0.2663
5 n86:4 0.3641
6 n86:5 0.1740
7 inst_188:A1 0.2701
*RES
2 TAUGATE_48:Z n86:1 0.3351
3 n86:1 n86:2 0.4105
4 n86:2 n86:3 0.3004
5 n86:3 n86:4 0.3665
6 n86:4 n86:5 0.1341
7 n86:5 inst_188:A1 0.0859
*END

*D_NET TAUNET_22 0.5333
*CONN
*P n89 I
*I TAUGATE_22:A I
*CAP
1 n89 0.3812
2 TAUNET_22:1 0.1227
3 TAUGATE_22:A 0.0294
*RES
2 n89 TAUNET_22:1 0.0059
3 TAUNET_22:1 TAUGATE_22:A 0.3552
*END

*D_NET TAUNET_41 2.1906
*CONN
*I inst_196:ZN O
*I TAUGATE_41:A I
*CAP
1 inst_196:ZN 0.1840
2 TAUNET_41:1 0.3573
3 TAUNET_41:2 0.4559
4 TAUNET_41:3 0.3575
5 TAUNET_41:4 0.1715
6 TAUNET_41:5 0.3050
7 TAUGATE_41:A 0.3594
*RES
2 inst_196:ZN TAUNET_41:1 0.4902
3 TAUNET_41:1 TAUNET_41:2 0.4716
4 TAUNET_41:2 TAUNET_41:3 0.2112
5 TAUNET_41:3 TAUNET_41:4 0.1762
6 TAUNET_41:4 TAUNET_41:5 0.1166
7 TAUNET_41:5 TAUGATE_41:A 0.1660
*END

*D_NET net_226 3.4913
*CONN
*I TAUGATE_52:Z O
*I inst_21:B I
*I inst_179:A2 I
*CAP
1 TAUGATE_52:Z 0.2908
2 net_226:1 0.3308
3 net_226:2 0.4080
4 net_226:3 0.4669
5 net_226:4 0.1932
6 inst_21:B 0.0675
7 net_226:5 0.4574
8 net_226:6 0.4683
9 net_226:7 0.1543
10 net_226:8 0.4873
11 inst_179:A2 0.1669
*RES
2 TAUGATE_52:Z net_226:1 0.0053
3 net_226:1 net_226:2 0.1459
4 net_226:2 net_226:3 0.0437
5 net_226:3 net_226:4 0.4598
6 net_226:4 inst_21:B 0.3838
7 net_226:2 net_226:5 0.4800
8 net_226:5 net_226:6 0.4518
9 net_226:6 net_226:7 0.0570
10 net_226:7 net_226:8 0.4909
11 net_226:8 inst_179:A2 0.0572
*END

*D_NET TAUNET_30 1.5455
*CONN
*I inst_224:ZN O
*I TAUGATE_30:A I
*CAP
1 inst_224:ZN 0.1013
2 TAUNET_30:1 0.4210
3 TAUNET_30:2 0.2594
4 TAUNET_30:3 0.3565
5 TAUGATE_30:A 0.4074
*RES
2 inst_224:ZN TAUNET_30:1 0.4309
3 TAUNET_30:1 TAUNET_30:2 0.4474
4 TAUNET_30:2 TAUNET_30:3 0.2931
5 TAUNET_30:3 TAUGATE_30:A 0.2848
*END

*D_NET net_239 1.9018
*CONN
*I TAUGATE_58:Z O
*I inst_84:A1 I
*CAP
1 TAUGATE_58:Z 0.3320
2 net_239:1 0.3663
3 net_239:2 0.1512
4 net_239:3 0.1368
5 net_239:4 0.4493
6 inst_84:A1 0.4663
*RES
2 TAUGATE_58:Z net_239:1 0.2866
3 net_239:1 net_239:2 0.1873
4 net_239:2 net_239:3 0.1599
5 net_239:3 net_239:4 0.3589
6 net_239:4 inst_84:A1 0.4697
*END

*D_NET n1996 6.9215
*CONN
*I TAUGATE_13:Z O
*I inst_103:A1 I
*I inst_231:A1 I
*I inst_26:A I
*I inst_70:A1 I
*I inst_276:A I
*CAP
1 TAUGATE_13:Z 0.0401
2 n1996:1 0.1883
3 n1996:2 0.3075
4 n1996:3 0.0604
5 inst_276:A 0.3908
6 n1996:4 0.3010
7 n1996:5 0.1515
8 n1996:6 0.0492
9 inst_231:A1 0.2707
10 n1996:7 0.3648
11 n1996:8 0.4404
12 n1996:9 0.3187
13 n1996:10 0.4272
14 n1996:11 0.0224
15 inst_26:A 0.4026
16 n1996:12 0.1530
17 n1996:13 0.2582
18 n1996:14 0.4484
19 inst_70:A1 0.0762
20 n1996:15 0.2972
21 n1996:16 0.3936
22 n1996:17 0.4880
23 n1996:18 0.4169
24 n1996:19 0.3167
25 inst_103:A1 0.3376
*RES
2 TAUGATE_13:Z n1996:1 0.2921
3 n1996:1 n1996:2 0.4162
4 n1996:2 n1996:3 0.1285
5 n1996:3 inst_276:A 0.0491
6 n1996:3 n1996:4 0.0711
7 n1996:4 n1996:5 0.2365
8 n1996:5 n1996:6 0.0021
9 n1996:6 inst_231:A1 0.2080
10 n1996:5 n1996:7 0.2784
11 n1996:7 n1996:8 0.1803
12 n1996:8 n1996:9 0.0882
13 n1996:9 n1996:10 0.2924
14 n1996:10 n1996:11 0.4780
15 n1996:11 inst_26:A 0.3510
16 n1996:3 n1996:12 0.1986
17 n1996:12 n1996:13 0.3922
18 n1996:13 n1996:14 0.3950
19 n1996:14 inst_70:A1 0.2666
20 n1996:13 n1996:15 0.1073
21 n1996:15 n1996:16 0.3579
22 n1996:16 n1996:17 0.1300
23 n1996:17 n1996:18 0.3795
24 n1996:18 n1996:19 0.2362
25 n1996:19 inst_103:A1 0.1908
*END

*D_NET n2430 0.6491
*CONN
*I TAUGATE_32:Z O
*I inst_5:A I
*CAP
1 TAUGATE_32:Z 0.3123
2 n2430:1 0.0048
3 n2430:2 0.3126
4 inst_5:A 0.0195
*RES
2 TAUGATE_32:Z n2430:1 0.0541
3 n2430:1 n2430:2 0.3700
4 n2430:2 inst_5:A 0.3260
*END

*D_NET TAUNET_58 1.8468
*CONN
*I inst_341:ZN O
*I TAUGATE_58:A I
*CAP
1 inst_341:ZN 0.4948
2 TAUNET_58:1 0.1954
3 TAUNET_58:2 0.0063
4 TAUNET_58:3 0.4904
5 TAUNET_58:4 0.0915
6 TAUNET_58:5 0.4619
7 TAUGATE_58:A 0.1065
*RES
2 inst_341:ZN TAUNET_58:1 0.1990
3 TAUNET_58:1 TAUNET_58:2 0.2576
4 TAUNET_58:2 TAUNET_58:3 0.0690
5 TAUNET_58:3 TAUNET_58:4 0.2231
6 TAUNET_58:4 TAUNET_58:5 0.2934
7 TAUNET_58:5 TAUGATE_58:A 0.0661
*END

*D_NET net_102 0.8263
*CONN
*I TAUGATE_30:Z O
*I inst_134:A2 I
*CAP
1 TAUGATE_30:Z 0.1011
2 net_102:1 0.0765
3 net_102:2 0.1980
4 net_102:3 0.3226
5 inst_134:A2 0.1282
*RES
2 TAUGATE_30:Z net_102:1 0.2766
3 net_102:1 net_102:2 0.4045
4 net_102:2 net_102:3 0.4267
5 net_102:3 inst_134:A2 0.4596
*END

*D_NET net_260 1.8134
*CONN
*I TAUGATE_27:Z O
*I inst_89:A2 I
*CAP
1 TAUGATE_27:Z 0.4724
2 net_260:1 0.0407
3 net_260:2 0.4130
4 net_260:3 0.3462
5 net_260:4 0.0714
6 net_260:5 0.2110
7 inst_89:A2 0.2588
*RES
2 TAUGATE_27:Z net_260:1 0.0339
3 net_260:1 net_260:2 0.0519
4 net_260:2 net_260:3 0.4874
5 net_260:3 net_260:4 0.0374
6 net_260:4 net_260:5 0.2489
7 net_260:5 inst_89:A2 0.2584
*END

*D_NET TAUNET_52 1.1848
*CONN
*I inst_109:ZN O
*I TAUGATE_52:A I
*CAP
1 inst_109:ZN 0.4333
2 TAUNET_52:1 0.3416
3 TAUGATE_52:A 0.4099
*RES
2 inst_109:ZN TAUNET_52:1 0.1540
3 TAUNET_52:1 TAUGATE_52:A 0.0325
*END

*D_NET TAUNET_59 1.0242
*CONN
*P n4 I
*I TAUGATE_59:A I
*CAP
1 n4 0.1850
2 TAUNET_59:1 0.2746
3 TAUNET_59:2 0.4228
4 TAUGATE_59:A 0.1417
*RES
2 n4 TAUNET_59:1 0.3754
3 TAUNET_59:1 TAUNET_59:2 0.2016
4 TAUNET_59:2 TAUGATE_59:A 0.0068
*END

*D_NET n67 1.7534
*CONN
*I TAUGATE_28:Z O
*I inst_224:A1 I
*CAP
1 TAUGATE_28:Z 0.4220
2 n67:1 0.0580
3 n67:2 0.3810
4 n67:3 0.2195
5 n67:4 0.2042
6 n67:5 0.2030
7 inst_224:A1 0.2656
*RES
2 TAUGATE_28:Z n67:1 0.4413
3 n67:1 n67:2 0.1336
4 n67:2 n67:3 0.4042
5 n67:3 n67:4 0.0451
6 n67:4 n67:5 0.2391
7 n67:5 inst_224:A1 0.0321
*END

*D_NET TAUNET_48 1.0327
*CONN
*P n86 I
*I TAUGATE_48:A I
*CAP
1 n86 0.0857
2 TAUNET_48:1 0.2245
3 TAUNET_48:2 0.4797
4 TAUNET_48:3 0.0551
5 TAUGATE_48:A 0.1877
*RES
2 n86 TAUNET_48:1 0.0973
3 TAUNET_48:1 TAUNET_48:2 0.4235
4 TAUNET_48:2 TAUNET_48:3 0.1903
5 TAUNET_48:3 TAUGATE_48:A 0.2143
*END

*D_NET TAUNET_42 1.8683
*CONN
*I inst_41:ZN O
*I TAUGATE_42:A I
*CAP
1 inst_41:ZN 0.2421
2 TAUNET_42:1 0.2497
3 TAUNET_42:2 0.2766
4 TAUNET_42:3 0.3086
5 TAUNET_42:4 0.2353
6 TAUNET_42:5 0.4838
7 TAUGATE_42:A 0.0722
*RES
2 inst_41:ZN TAUNET_42:1 0.3539
3 TAUNET_42:1 TAUNET_42:2 0.3446
4 TAUNET_42:2 TAUNET_42:3 0.0192
5 TAUNET_42:3 TAUNET_42:4 0.1341
6 TAUNET_42:4 TAUNET_42:5 0.4054
7 TAUNET_42:5 TAUGATE_42:A 0.3681
*END

*D_NET net_190 0.7963
*CONN
*I TAUGATE_19:Z O
*I inst_137:A1 I
*CAP
1 TAUGATE_19:Z 0.1561
2 net_190:1 0.0224
3 net_190:2 0.3933
4 inst_137:A1 0.2244
*RES
2 TAUGATE_19:Z net_190:1 0.4154
3 net_190:1 net_190:2 0.1374
4 net_190:2 inst_137:A1 0.1713
*END

*D_NET net_96 1.8689
*CONN
*I TAUGATE_43:Z O
*I inst_170:A1 I
*CAP
1 TAUGATE_43:Z 0.3119
2 net_96:1 0.3583
3 net_96:2 0.0251
4 net_96:3 0.0071
5 net_96:4 0.2242
6 net_96:5 0.4834
7 inst_170:A1 0.4589
*RES
2 TAUGATE_43:Z net_96:1 0.0098
3 net_96:1 net_96:2 0.3264
4 net_96:2 net_96:3 0.2846
5 net_96:3 net_96:4 0.4721
6 net_96:4 net_96:5 0.1185
7 net_96:5 inst_170:A1 0.4585
*END

*D_NET TAUNET_18 1.8587
*CONN
*P n2451 I
*I TAUGATE_18:A I
*CAP
1 n2451 0.0365
2 TAUNET_18:1 0.4335
3 TAUNET_18:2 0.3158
4 TAUNET_18:3 0.2513
5 TAUNET_18:4 0.4798
6 TAUNET_18:5 0.1640
7 TAUGATE_18:A 0.1778
*RES
2 n2451 TAUNET_18:1 0.3155
3 TAUNET_18:1 TAUNET_18:2 0.4909
4 TAUNET_18:2 TAUNET_18:3 0.2285
5 TAUNET_18:3 TAUNET_18:4 0.2293
6 TAUNET_18:4 TAUNET_18:5 0.4514
7 TAUNET_18:5 TAUGATE_18:A 0.1489
*END

*D_NET n148 1.3305
*CONN
*I TAUGATE_51:Z O
*P n148 O
*CAP
1 TAUGATE_51:Z 0.1815
2 n148:1 0.3238
3 n148:2 0.1536
4 n148:3 0.2744
5 n148 0.3973
*RES
2 TAUGATE_51:Z n148:1 0.0682
3 n148:1 n148:2 0.0813
4 n148:2 n148:3 0.2235
5 n148:3 n148 0.0018
*END

*D_NET TAUNET_45 1.8273
*CONN
*I inst_241:ZN O
*I TAUGATE_45:A I
*CAP
1 inst_241:ZN 0.4580
2 TAUNET_45:1 0.4660
3 TAUNET_45:2 0.3296
4 TAUNET_45:3 0.2711
5 TAUNET_45:4 0.1177
6 TAUNET_45:5 0.1130
7 TAUGATE_45:A 0.0719
*RES
2 inst_241:ZN TAUNET_45:1 0.2913
3 TAUNET_45:1 TAUNET_45:2 0.3837
4 TAUNET_45:2 TAUNET_45:3 0.4308
5 TAUNET_45:3 TAUNET_45:4 0.4593
6 TAUNET_45:4 TAUNET_45:5 0.4578
7 TAUNET_45:5 TAUGATE_45:A 0.1666
*END

*D_NET TAUNET_21 1.7192
*CONN
*I inst_53:ZN O
*I TAUGATE_21:A I
*CAP
1 inst_53:ZN 0.2000
2 TAUNET_21:1 0.3792
3 TAUNET_21:2 0.3945
4 TAUNET_21:3 0.1168
5 TAUNET_21:4 0.0632
6 TAUNET_21:5 0.3389
7 TAUGATE_21:A 0.2267
*RES