*SPEF "IEEE 1481-1998"
*DESIGN "changes"
*DATE "Tue Dec 02 20:44:43 2014"
*VENDOR "TAU 2015 Contest"
*PROGRAM "Benchmark Parasitic Generator"
*VERSION "0.0"
*DESIGN_FLOW "NETLIST_TYPE_VERILOG"
*DIVIDER /
*DELIMITER :
*BUS_DELIMITER [ ]
*T_UNIT 1 PS
*C_UNIT 1 FF
*R_UNIT 1 KOHM
*L_UNIT 1 UH

*D_NET n108 3.0173
*CONN
*I TAUGATE_1:Z O
*I inst_283:A I
*I inst_119:A1 I
*CAP
1 TAUGATE_1:Z 0.2611
2 n108:1 0.4098
3 n108:2 0.5009
4 n108:3 0.2843
5 inst_283:A 0.2878
6 n108:4 0.4685
7 n108:5 0.3070
8 n108:6 0.3583
9 inst_119:A1 0.1395
*RES
2 TAUGATE_1:Z n108:1 0.1659
3 n108:1 n108:2 0.2742
4 n108:2 n108:3 0.3494
5 n108:3 inst_283:A 0.1485
6 n108:3 n108:4 0.0646
7 n108:4 n108:5 0.0794
8 n108:5 n108:6 0.2161
9 n108:6 inst_119:A1 0.1614
*END

*D_NET TAUNET_1 1.8183
*CONN
*P n108 I
*I TAUGATE_1:A I
*CAP
1 n108 0.3755
2 TAUNET_1:1 0.4559
3 TAUNET_1:2 0.4050
4 TAUNET_1:3 0.0154
5 TAUNET_1:4 0.1670
6 TAUNET_1:5 0.1555
7 TAUGATE_1:A 0.2440
*RES
2 n108 TAUNET_1:1 0.0332
3 TAUNET_1:1 TAUNET_1:2 0.0406
4 TAUNET_1:2 TAUNET_1:3 0.2732
5 TAUNET_1:3 TAUNET_1:4 0.0073
6 TAUNET_1:4 TAUNET_1:5 0.1308
7 TAUNET_1:5 TAUGATE_1:A 0.1374
*END

