*SPEF "IEEE 1481-1998"
*DESIGN "c3540"
*DATE "Tue Nov 25 16:54:42 2014"
*VENDOR "TAU 2015 Contest"
*PROGRAM "Benchmark Parasitic Generator"
*VERSION "0.0"
*DESIGN_FLOW "NETLIST_TYPE_VERILOG"
*DIVIDER /
*DELIMITER :
*BUS_DELIMITER [ ]
*T_UNIT 1 PS
*C_UNIT 1 FF
*R_UNIT 1 KOHM
*L_UNIT 1 UH

*D_NET net_568 1.5689
*CONN
*I inst_570:ZN O
*I inst_173:A2 I
*I inst_174:A1 I
*I inst_274:A1 I
*I inst_28:A I
*CAP
1 inst_570:ZN 0.0072
2 inst_173:A2 0.0166
3 inst_174:A1 0.0166
4 inst_274:A1 0.0166
5 inst_28:A 0.0166
6 net_568:1 0.0152
7 net_568:2 0.0181
8 net_568:3 0.0453
9 net_568:4 0.0875
10 net_568:5 0.0959
11 net_568:6 0.0999
12 net_568:7 0.3955
13 net_568:8 0.3040
14 net_568:9 0.1098
15 net_568:10 0.0141
16 net_568:11 0.0153
17 net_568:12 0.0153
18 net_568:13 0.0152
19 net_568:14 0.0348
20 net_568:15 0.0152
21 net_568:16 0.0380
22 net_568:17 0.0380
23 net_568:18 0.0196
24 net_568:19 0.0152
25 net_568:20 0.1033
*RES
2 inst_570:ZN net_568:18 0.0010
3 net_568:1 inst_173:A2 0.0050
4 net_568:2 net_568:1 0.0050
5 net_568:3 net_568:2 0.0010
6 net_568:4 net_568:3 0.0050
7 net_568:5 net_568:4 0.0027
8 net_568:5 net_568:6 0.0010
9 net_568:7 net_568:6 0.0038
10 net_568:7 net_568:17 0.0050
11 net_568:8 net_568:7 0.0109
12 net_568:9 net_568:8 0.0050
13 net_568:9 net_568:10 0.0010
14 net_568:10 net_568:11 0.0050
15 net_568:12 inst_274:A1 0.0050
16 net_568:12 net_568:11 0.0010
17 net_568:13 inst_174:A1 0.0050
18 net_568:14 net_568:3 0.0017
19 net_568:14 net_568:13 0.0050
20 net_568:15 inst_28:A 0.0050
21 net_568:16 net_568:15 0.0050
22 net_568:16 net_568:17 0.0040
23 net_568:19 net_568:18 0.0050
24 net_568:20 net_568:9 0.0074
25 net_568:20 net_568:19 0.0050
*END

*D_NET net_47 0.4309
*CONN
*I inst_14:ZN O
*I inst_19:B I
*CAP
1 inst_14:ZN 0.0166
2 inst_19:B 0.0166
3 net_47:1 0.0371
4 net_47:2 0.0409
5 net_47:3 0.0133
6 net_47:4 0.0133
7 net_47:5 0.1023
8 net_47:6 0.1023
9 net_47:7 0.0106
10 net_47:8 0.0106
11 net_47:9 0.0336
12 net_47:10 0.0336
*RES
2 inst_19:B net_47:10 0.0050
3 net_47:1 inst_14:ZN 0.0050
4 net_47:2 net_47:1 0.0020
5 net_47:3 net_47:2 0.0050
6 net_47:3 net_47:4 0.0010
7 net_47:5 net_47:4 0.0050
8 net_47:6 net_47:5 0.0040
9 net_47:7 net_47:6 0.0050
10 net_47:7 net_47:8 0.0010
11 net_47:9 net_47:8 0.0050
12 net_47:10 net_47:9 0.0030
*END

*D_NET net_416 0.1541
*CONN
*I inst_95:ZN O
*I inst_265:A1 I
*CAP
1 inst_95:ZN 0.0166
2 inst_265:A1 0.0166
3 net_416:1 0.0152
4 net_416:2 0.0452
5 net_416:3 0.0452
6 net_416:4 0.0152
*RES
2 inst_265:A1 net_416:4 0.0050
3 net_416:1 inst_95:ZN 0.0050
4 net_416:2 net_416:1 0.0050
5 net_416:3 net_416:2 0.0027
6 net_416:4 net_416:3 0.0050
*END

*D_NET net_215 0.3670
*CONN
*I inst_69:ZN O
*I inst_277:A2 I
*CAP
1 inst_69:ZN 0.0153
2 inst_277:A2 0.0166
3 net_215:1 0.0236
4 net_215:2 0.0152
5 net_215:3 0.1200
6 net_215:4 0.1200
7 net_215:5 0.0281
8 net_215:6 0.0281
*RES
2 inst_69:ZN net_215:1 0.0021
3 inst_277:A2 net_215:6 0.0050
4 net_215:2 net_215:1 0.0050
5 net_215:3 net_215:2 0.0050
6 net_215:3 net_215:4 0.0129
7 net_215:5 net_215:4 0.0050
8 net_215:6 net_215:5 0.0015
*END

*D_NET net_54 0.1920
*CONN
*I inst_633:ZN O
*I inst_221:A1 I
*CAP
1 inst_633:ZN 0.0166
2 inst_221:A1 0.0166
3 net_54:1 0.0256
4 net_54:2 0.0256
5 net_54:3 0.0331
6 net_54:4 0.0331
7 net_54:5 0.0206
8 net_54:6 0.0206
*RES
2 inst_221:A1 net_54:6 0.0050
3 net_54:1 inst_633:ZN 0.0050
4 net_54:2 net_54:1 0.0015
5 net_54:3 net_54:2 0.0050
6 net_54:3 net_54:4 0.0027
7 net_54:5 net_54:4 0.0050
8 net_54:6 net_54:5 0.0010
*END

*D_NET net_526 1.1669
*CONN
*I inst_167:ZN O
*I inst_26:A I
*I inst_207:A2 I
*I inst_209:A2 I
*I inst_273:A3 I
*CAP
1 inst_167:ZN 0.0162
2 inst_26:A 0.0166
3 inst_207:A2 0.0166
4 inst_209:A2 0.0166
5 inst_273:A3 0.0166
6 net_526:1 0.0162
7 net_526:2 0.0162
8 net_526:3 0.0698
9 net_526:4 0.0698
10 net_526:5 0.0467
11 net_526:6 0.0467
12 net_526:7 0.0131
13 net_526:8 0.0131
14 net_526:9 0.0839
15 net_526:10 0.0839
16 net_526:11 0.0141
17 net_526:12 0.0422
18 net_526:13 0.0422
19 net_526:14 0.0789
20 net_526:15 0.0404
21 net_526:16 0.0207
22 net_526:17 0.0207
23 net_526:18 0.0151
24 net_526:19 0.0151
25 net_526:20 0.0152
26 net_526:21 0.0414
27 net_526:22 0.0414
28 net_526:23 0.0153
29 net_526:24 0.0153
30 net_526:25 0.0527
31 net_526:26 0.0565
32 net_526:27 0.0086
33 net_526:28 0.0086
34 net_526:29 0.0177
35 net_526:30 0.0384
36 net_526:31 0.0245
*RES
2 inst_167:ZN net_526:31 0.0021
3 net_526:1 inst_26:A 0.0050
4 net_526:2 net_526:1 0.0010
5 net_526:3 net_526:2 0.0050
6 net_526:4 net_526:3 0.0061
7 net_526:5 net_526:4 0.0050
8 net_526:6 inst_273:A3 0.0050
9 net_526:6 net_526:5 0.0025
10 net_526:6 net_526:7 0.0050
11 net_526:7 net_526:8 0.0010
12 net_526:8 net_526:9 0.0050
13 net_526:10 net_526:9 0.0027
14 net_526:10 net_526:11 0.0030
15 net_526:11 net_526:12 0.0030
16 net_526:13 net_526:12 0.0017
17 net_526:13 net_526:14 0.0030
18 net_526:14 net_526:30 0.0013
19 net_526:15 net_526:14 0.0013
20 net_526:15 net_526:16 0.0030
21 net_526:17 net_526:16 0.0010
22 net_526:17 net_526:18 0.0050
23 net_526:18 net_526:19 0.0010
24 net_526:19 net_526:20 0.0050
25 net_526:20 net_526:21 0.0050
26 net_526:21 net_526:22 0.0041
27 net_526:22 net_526:23 0.0050
28 net_526:23 net_526:24 0.0010
29 net_526:24 inst_209:A2 0.0050
30 net_526:25 inst_207:A2 0.0050
31 net_526:25 net_526:26 0.0070
32 net_526:27 net_526:26 0.0050
33 net_526:27 net_526:28 0.0010
34 net_526:29 net_526:28 0.0050
35 net_526:30 net_526:29 0.0030
36 net_526:31 net_526:5 0.0050
*END

*D_NET net_429 0.6041
*CONN
*I inst_205:ZN O
*I inst_546:A2 I
*CAP
1 inst_205:ZN 0.0166
2 inst_546:A2 0.0166
3 net_429:1 0.0367
4 net_429:2 0.0406
5 net_429:3 0.0248
6 net_429:4 0.0248
7 net_429:5 0.2024
8 net_429:6 0.2024
9 net_429:7 0.0120
10 net_429:8 0.0120
11 net_429:9 0.0152
*RES
2 inst_546:A2 net_429:9 0.0050
3 net_429:1 inst_205:ZN 0.0050
4 net_429:2 net_429:1 0.0040
5 net_429:3 net_429:2 0.0050
6 net_429:4 net_429:3 0.0023
7 net_429:5 net_429:4 0.0050
8 net_429:6 net_429:5 0.0065
9 net_429:7 net_429:6 0.0050
10 net_429:8 net_429:7 0.0010
11 net_429:9 net_429:8 0.0050
*END

*D_NET net_557 0.3955
*CONN
*I inst_4:Z O
*I inst_28:B I
*CAP
1 inst_4:Z 0.0072
2 inst_28:B 0.0166
3 net_557:1 0.0196
4 net_557:2 0.0367
5 net_557:3 0.0367
6 net_557:4 0.0079
7 net_557:5 0.0079
8 net_557:6 0.0785
9 net_557:7 0.0785
10 net_557:8 0.0143
11 net_557:9 0.0143
12 net_557:10 0.0405
13 net_557:11 0.0367
*RES
2 inst_4:Z net_557:1 0.0010
3 inst_28:B net_557:11 0.0050
4 net_557:2 net_557:1 0.0050
5 net_557:3 net_557:2 0.0030
6 net_557:4 net_557:3 0.0050
7 net_557:4 net_557:5 0.0010
8 net_557:6 net_557:5 0.0050
9 net_557:7 net_557:6 0.0036
10 net_557:8 net_557:7 0.0050
11 net_557:8 net_557:9 0.0010
12 net_557:10 net_557:9 0.0050
13 net_557:11 net_557:10 0.0040
*END

*D_NET net_129 0.1317
*CONN
*I inst_372:ZN O
*I inst_232:A1 I
*CAP
1 inst_372:ZN 0.0099
2 inst_232:A1 0.0166
3 net_129:1 0.0161
4 net_129:2 0.0161
5 net_129:3 0.0198
6 net_129:4 0.0198
7 net_129:5 0.0152
8 net_129:6 0.0182
*RES
2 inst_372:ZN net_129:6 0.0010
3 net_129:1 inst_232:A1 0.0050
4 net_129:2 net_129:1 0.0010
5 net_129:3 net_129:2 0.0050
6 net_129:4 net_129:3 0.0014
7 net_129:5 net_129:4 0.0050
8 net_129:6 net_129:5 0.0050
*END

*D_NET net_648 0.8445
*CONN
*I inst_42:ZN O
*I inst_595:A2 I
*I inst_287:A3 I
*CAP
1 inst_42:ZN 0.0166
2 inst_595:A2 0.0143
3 inst_287:A3 0.0146
4 net_648:1 0.0229
5 net_648:2 0.3090
6 net_648:3 0.0582
7 net_648:4 0.0582
8 net_648:5 0.0152
9 net_648:6 0.0227
10 net_648:7 0.3128
*RES
2 inst_595:A2 net_648:6 0.0021
3 net_648:1 inst_287:A3 0.0021
4 net_648:2 net_648:1 0.0050
5 net_648:2 net_648:3 0.0050
6 net_648:4 net_648:3 0.0034
7 net_648:4 net_648:5 0.0050
8 net_648:5 net_648:6 0.0050
9 net_648:7 inst_42:ZN 0.0050
10 net_648:7 net_648:2 0.0260
*END

*D_NET net_373 0.6022
*CONN
*I inst_230:ZN O
*I inst_244:A2 I
*I inst_247:A2 I
*I inst_250:A2 I
*CAP
1 inst_230:ZN 0.0080
2 inst_244:A2 0.0166
3 inst_247:A2 0.0166
4 inst_250:A2 0.0166
5 net_373:1 0.0791
6 net_373:2 0.0814
7 net_373:3 0.0284
8 net_373:4 0.0423
9 net_373:5 0.0372
10 net_373:6 0.0537
11 net_373:7 0.0174
12 net_373:8 0.0174
13 net_373:9 0.0238
14 net_373:10 0.0163
15 net_373:11 0.0616
16 net_373:12 0.0616
17 net_373:13 0.0241
*RES
2 net_373:1 inst_244:A2 0.0050
3 net_373:2 net_373:1 0.0060
4 net_373:2 net_373:3 0.0010
5 net_373:4 net_373:3 0.0025
6 net_373:5 net_373:4 0.0050
7 net_373:5 net_373:6 0.0041
8 net_373:6 net_373:13 0.0027
9 net_373:6 net_373:7 0.0050
10 net_373:7 net_373:8 0.0010
11 net_373:8 inst_247:A2 0.0050
12 net_373:9 inst_250:A2 0.0050
13 net_373:9 net_373:4 0.0015
14 net_373:10 inst_230:ZN 0.0010
15 net_373:11 net_373:10 0.0050
16 net_373:11 net_373:12 0.0065
17 net_373:13 net_373:12 0.0050
*END

*D_NET net_119 0.2281
*CONN
*I inst_364:ZN O
*I inst_263:A2 I
*CAP
1 inst_364:ZN 0.0166
2 inst_263:A2 0.0166
3 net_119:1 0.0712
4 net_119:2 0.0735
5 net_119:3 0.0263
6 net_119:4 0.0240
*RES
2 inst_263:A2 net_119:4 0.0050
3 net_119:1 inst_364:ZN 0.0050
4 net_119:2 net_119:1 0.0060
5 net_119:3 net_119:2 0.0010
6 net_119:4 net_119:3 0.0015
*END

*D_NET net_98 0.1892
*CONN
*I inst_356:ZN O
*I inst_224:A1 I
*CAP
1 inst_356:ZN 0.0166
2 inst_224:A1 0.0166
3 net_98:1 0.0395
4 net_98:2 0.0395
5 net_98:3 0.0308
6 net_98:4 0.0308
7 net_98:5 0.0152
*RES
2 inst_224:A1 net_98:5 0.0050
3 net_98:1 inst_356:ZN 0.0050
4 net_98:1 net_98:2 0.0025
5 net_98:3 net_98:2 0.0050
6 net_98:4 net_98:3 0.0014
7 net_98:5 net_98:4 0.0050
*END

*D_NET net_151 0.1495
*CONN
*I inst_388:ZN O
*I inst_657:A3 I
*CAP
1 inst_388:ZN 0.0152
2 inst_657:A3 0.0166
3 net_151:1 0.0235
4 net_151:2 0.0175
5 net_151:3 0.0395
6 net_151:4 0.0372
*RES
2 inst_657:A3 net_151:4 0.0050
3 net_151:1 inst_388:ZN 0.0021
4 net_151:2 net_151:1 0.0050
5 net_151:3 net_151:2 0.0010
6 net_151:3 net_151:4 0.0035
*END

*D_NET net_356 1.0230
*CONN
*I inst_420:ZN O
*I inst_660:A4 I
*I inst_202:A4 I
*CAP
1 inst_420:ZN 0.0175
2 inst_660:A4 0.0166
3 inst_202:A4 0.0166
4 net_356:1 0.0152
5 net_356:2 0.0470
6 net_356:3 0.0470
7 net_356:4 0.1596
8 net_356:5 0.1596
9 net_356:6 0.1103
10 net_356:7 0.1103
11 net_356:8 0.0344
12 net_356:9 0.0344
13 net_356:10 0.0159
14 net_356:11 0.0182
15 net_356:12 0.0152
16 net_356:13 0.0668
17 net_356:14 0.0668
18 net_356:15 0.0357
19 net_356:16 0.0357
*RES
2 inst_420:ZN net_356:11 0.0010
3 inst_202:A4 net_356:16 0.0050
4 net_356:1 inst_660:A4 0.0050
5 net_356:2 net_356:1 0.0050
6 net_356:2 net_356:3 0.0058
7 net_356:4 net_356:3 0.0050
8 net_356:5 net_356:4 0.0046
9 net_356:6 net_356:5 0.0050
10 net_356:6 net_356:7 0.0145
11 net_356:8 net_356:7 0.0050
12 net_356:9 net_356:8 0.0020
13 net_356:10 inst_420:ZN 0.0010
14 net_356:10 net_356:9 0.0050
15 net_356:12 net_356:11 0.0050
16 net_356:13 net_356:12 0.0050
17 net_356:13 net_356:14 0.0041
18 net_356:15 net_356:14 0.0050
19 net_356:16 net_356:15 0.0020
*END

*D_NET net_53 0.3972
*CONN
*I inst_320:ZN O
*I inst_633:A I
*I inst_125:A2 I
*CAP
1 inst_320:ZN 0.0070
2 inst_633:A 0.0072
3 inst_125:A2 0.0076
4 net_53:1 0.0155
5 net_53:2 0.0157
6 net_53:3 0.0157
7 net_53:4 0.0395
8 net_53:5 0.0395
9 net_53:6 0.0256
10 net_53:7 0.0319
11 net_53:8 0.0176
12 net_53:9 0.0159
13 net_53:10 0.0154
14 net_53:11 0.0152
15 net_53:12 0.0640
16 net_53:13 0.0640
*RES
2 inst_320:ZN net_53:10 0.0010
3 net_53:1 inst_633:A 0.0010
4 net_53:2 net_53:1 0.0050
5 net_53:3 net_53:2 0.0010
6 net_53:4 net_53:3 0.0050
7 net_53:5 net_53:4 0.0027
8 net_53:6 net_53:5 0.0050
9 net_53:6 net_53:7 0.0020
10 net_53:7 net_53:8 0.0010
11 net_53:8 net_53:9 0.0050
12 net_53:9 inst_125:A2 0.0010
13 net_53:11 net_53:10 0.0050
14 net_53:12 net_53:11 0.0050
15 net_53:12 net_53:13 0.0068
16 net_53:13 net_53:7 0.0050
*END

*D_NET net_452 0.5309
*CONN
*I inst_267:ZN O
*I inst_550:A1 I
*CAP
1 inst_267:ZN 0.0379
2 inst_550:A1 0.0166
3 net_452:1 0.0462
4 net_452:2 0.0152
5 net_452:3 0.1272
6 net_452:4 0.1272
7 net_452:5 0.0803
8 net_452:6 0.0803
*RES
2 inst_267:ZN net_452:1 0.0052
3 inst_550:A1 net_452:6 0.0050
4 net_452:2 net_452:1 0.0050
5 net_452:3 net_452:2 0.0050
6 net_452:3 net_452:4 0.0109
7 net_452:5 net_452:4 0.0050
8 net_452:6 net_452:5 0.0045
*END

*D_NET net_210 0.1779
*CONN
*I inst_431:ZN O
*I inst_265:A2 I
*CAP
1 inst_431:ZN 0.0166
2 inst_265:A2 0.0166
3 net_210:1 0.0459
4 net_210:2 0.0482
5 net_210:3 0.0264
6 net_210:4 0.0241
*RES
2 inst_431:ZN net_210:4 0.0050
3 net_210:1 inst_265:A2 0.0050
4 net_210:2 net_210:1 0.0035
5 net_210:3 net_210:2 0.0010
6 net_210:4 net_210:3 0.0015
*END

*D_NET net_545 1.7269
*CONN
*I inst_653:ZN O
*I inst_84:A2 I
*I inst_572:A2 I
*I inst_172:A2 I
*CAP
1 inst_653:ZN 0.0099
2 inst_84:A2 0.0166
3 inst_572:A2 0.0166
4 inst_172:A2 0.0166
5 net_545:1 0.0675
6 net_545:2 0.0213
7 net_545:3 0.0539
8 net_545:4 0.0539
9 net_545:5 0.2051
10 net_545:6 0.2051
11 net_545:7 0.2154
12 net_545:8 0.2154
13 net_545:9 0.0507
14 net_545:10 0.0507
15 net_545:11 0.0156
16 net_545:12 0.0156
17 net_545:13 0.1234
18 net_545:14 0.1234
19 net_545:15 0.0184
20 net_545:16 0.0184
21 net_545:17 0.0535
22 net_545:18 0.0574
23 net_545:19 0.0576
24 net_545:20 0.0182
25 net_545:21 0.0152
26 net_545:22 0.0115
*RES
2 net_545:1 inst_84:A2 0.0050
3 net_545:1 net_545:19 0.0060
4 net_545:2 net_545:1 0.0010
5 net_545:2 net_545:3 0.0050
6 net_545:4 net_545:3 0.0050
7 net_545:4 net_545:5 0.0050
8 net_545:6 net_545:5 0.0063
9 net_545:6 net_545:7 0.0030
10 net_545:8 net_545:7 0.0084
11 net_545:8 net_545:9 0.0030
12 net_545:10 net_545:9 0.0019
13 net_545:10 net_545:11 0.0050
14 net_545:12 net_545:11 0.0010
15 net_545:12 net_545:13 0.0050
16 net_545:14 inst_572:A2 0.0050
17 net_545:14 net_545:13 0.0095
18 net_545:15 inst_172:A2 0.0050
19 net_545:15 net_545:16 0.0010
20 net_545:17 net_545:16 0.0050
21 net_545:17 net_545:18 0.0041
22 net_545:18 net_545:22 0.0010
23 net_545:18 net_545:19 0.0050
24 net_545:20 inst_653:ZN 0.0010
25 net_545:21 net_545:20 0.0050
26 net_545:22 net_545:21 0.0050
*END

*D_NET net_284 0.1631
*CONN
*I inst_484:ZN O
*I inst_190:A1 I
*CAP
1 inst_484:ZN 0.0166
2 inst_190:A1 0.0166
3 net_284:1 0.0262
4 net_284:2 0.0262
5 net_284:3 0.0311
6 net_284:4 0.0311
7 net_284:5 0.0152
*RES
2 inst_190:A1 net_284:5 0.0050
3 net_284:1 inst_484:ZN 0.0050
4 net_284:2 net_284:1 0.0025
5 net_284:3 net_284:2 0.0050
6 net_284:4 net_284:3 0.0020
7 net_284:5 net_284:4 0.0050
*END

*D_NET net_168 3.7098
*CONN
*I inst_131:ZN O
*I inst_378:A2 I
*I inst_379:A2 I
*I inst_380:A2 I
*I inst_381:A2 I
*I inst_382:A2 I
*I inst_383:A2 I
*I inst_384:A2 I
*I inst_388:A2 I
*I inst_389:A2 I
*I inst_399:A2 I
*I inst_403:A2 I
*I inst_404:A2 I
*CAP
1 inst_131:ZN 0.0154
2 inst_378:A2 0.0166
3 inst_379:A2 0.0072
4 inst_380:A2 0.0166
5 inst_381:A2 0.0545
6 inst_382:A2 0.0072
7 inst_383:A2 0.0166
8 inst_384:A2 0.0072
9 inst_388:A2 0.0166
10 inst_389:A2 0.0166
11 inst_399:A2 0.0073
12 inst_403:A2 0.0166
13 inst_404:A2 0.0166
14 net_168:1 0.1023
15 net_168:2 0.0176
16 net_168:3 0.0176
17 net_168:4 0.0729
18 net_168:5 0.1365
19 net_168:6 0.1876
20 net_168:7 0.1876
21 net_168:8 0.1552
22 net_168:9 0.0801
23 net_168:10 0.0156
24 net_168:11 0.0155
25 net_168:12 0.0152
26 net_168:13 0.0431
27 net_168:14 0.0731
28 net_168:15 0.0636
29 net_168:16 0.0517
30 net_168:17 0.0249
31 net_168:18 0.0551
32 net_168:19 0.1241
33 net_168:20 0.1001
34 net_168:21 0.0827
35 net_168:22 0.0628
36 net_168:23 0.0557
37 net_168:24 0.0519
38 net_168:25 0.0810
39 net_168:26 0.0185
40 net_168:27 0.0223
41 net_168:28 0.0311
42 net_168:29 0.0155
43 net_168:30 0.0382
44 net_168:31 0.0155
45 net_168:32 0.0129
46 net_168:33 0.0620
47 net_168:34 0.0567
48 net_168:35 0.0985
49 net_168:36 0.0367
50 net_168:37 0.0405
51 net_168:38 0.0267
52 net_168:39 0.0267
53 net_168:40 0.0701
54 net_168:41 0.0739
55 net_168:42 0.0470
56 net_168:43 0.0470
57 net_168:44 0.1829
58 net_168:45 0.1829
59 net_168:46 0.0225
60 net_168:47 0.0225
61 net_168:48 0.0237
62 net_168:49 0.0152
63 net_168:50 0.0118
64 net_168:51 0.0118
65 net_168:52 0.0178
66 net_168:53 0.0178
67 net_168:54 0.1133
68 net_168:55 0.1133
69 net_168:56 0.0475
70 net_168:57 0.0475
71 net_168:58 0.0509
*RES
2 inst_379:A2 net_168:11 0.0010
3 inst_384:A2 net_168:29 0.0010
4 net_168:1 inst_378:A2 0.0050
5 net_168:2 net_168:1 0.0050
6 net_168:2 net_168:3 0.0010
7 net_168:4 net_168:3 0.0050
8 net_168:4 net_168:5 0.0025
9 net_168:5 net_168:15 0.0017
10 net_168:5 net_168:6 0.0050
11 net_168:7 net_168:6 0.0149
12 net_168:7 net_168:8 0.0050
13 net_168:8 net_168:9 0.0075
14 net_168:9 net_168:10 0.0050
15 net_168:10 inst_399:A2 0.0010
16 net_168:12 net_168:11 0.0050
17 net_168:13 net_168:12 0.0050
18 net_168:13 net_168:14 0.0033
19 net_168:14 net_168:25 0.0028
20 net_168:14 net_168:15 0.0050
21 net_168:16 inst_380:A2 0.0050
22 net_168:16 net_168:30 0.0035
23 net_168:17 net_168:16 0.0010
24 net_168:18 net_168:17 0.0050
25 net_168:18 net_168:19 0.0075
26 net_168:19 net_168:20 0.0075
27 net_168:19 net_168:34 0.0050
28 net_168:20 net_168:28 0.0020
29 net_168:21 net_168:8 0.0070
30 net_168:21 net_168:20 0.0050
31 net_168:22 inst_381:A2 0.0052
32 net_168:23 net_168:22 0.0050
33 net_168:23 net_168:24 0.0065
34 net_168:24 inst_403:A2 0.0050
35 net_168:25 net_168:24 0.0050
36 net_168:25 net_168:58 0.0062
37 net_168:26 inst_404:A2 0.0050
38 net_168:27 net_168:26 0.0010
39 net_168:28 net_168:27 0.0050
40 net_168:30 net_168:29 0.0050
41 net_168:31 inst_382:A2 0.0010
42 net_168:32 net_168:31 0.0050
43 net_168:32 net_168:33 0.0010
44 net_168:33 net_168:34 0.0050
45 net_168:33 net_168:47 0.0050
46 net_168:35 inst_383:A2 0.0050
47 net_168:35 net_168:1 0.0100
48 net_168:36 inst_388:A2 0.0050
49 net_168:36 net_168:37 0.0025
50 net_168:38 net_168:37 0.0050
51 net_168:38 net_168:39 0.0020
52 net_168:40 net_168:39 0.0050
53 net_168:40 net_168:41 0.0075
54 net_168:41 inst_389:A2 0.0050
55 net_168:42 net_168:41 0.0050
56 net_168:42 net_168:43 0.0054
57 net_168:44 net_168:43 0.0050
58 net_168:44 net_168:45 0.0059
59 net_168:46 net_168:45 0.0050
60 net_168:46 net_168:47 0.0010
61 net_168:48 inst_131:ZN 0.0021
62 net_168:49 net_168:48 0.0050
63 net_168:50 net_168:49 0.0050
64 net_168:51 net_168:50 0.0010
65 net_168:52 net_168:51 0.0050
66 net_168:53 net_168:52 0.0010
67 net_168:54 net_168:53 0.0030
68 net_168:55 net_168:54 0.0038
69 net_168:56 net_168:55 0.0030
70 net_168:57 net_168:56 0.0013
71 net_168:58 net_168:57 0.0050
*END

*D_NET net_560 0.9925
*CONN
*I inst_654:ZN O
*I inst_177:A2 I
*CAP
1 inst_654:ZN 0.0154
2 inst_177:A2 0.0166
3 net_560:1 0.0238
4 net_560:2 0.0376
5 net_560:3 0.0376
6 net_560:4 0.1371
7 net_560:5 0.1371
8 net_560:6 0.2190
9 net_560:7 0.2190
10 net_560:8 0.0130
11 net_560:9 0.0130
12 net_560:10 0.0617
13 net_560:11 0.0617
*RES
2 inst_654:ZN net_560:1 0.0021
3 inst_177:A2 net_560:11 0.0050
4 net_560:2 net_560:1 0.0050
5 net_560:3 net_560:2 0.0020
6 net_560:4 net_560:3 0.0050
7 net_560:4 net_560:5 0.0130
8 net_560:6 net_560:5 0.0050
9 net_560:7 net_560:6 0.0069
10 net_560:8 net_560:7 0.0050
11 net_560:8 net_560:9 0.0010
12 net_560:10 net_560:9 0.0050
13 net_560:11 net_560:10 0.0040
*END

*D_NET net_477 0.6137
*CONN
*I inst_257:ZN O
*I inst_539:A2 I
*I inst_159:A1 I
*I inst_671:A2 I
*CAP
1 inst_257:ZN 0.0268
2 inst_539:A2 0.0166
3 inst_159:A1 0.0166
4 inst_671:A2 0.0166
5 net_477:1 0.0152
6 net_477:2 0.0268
7 net_477:3 0.0268
8 net_477:4 0.0724
9 net_477:5 0.0724
10 net_477:6 0.0185
11 net_477:7 0.0403
12 net_477:8 0.0441
13 net_477:9 0.0780
14 net_477:10 0.0780
15 net_477:11 0.0323
16 net_477:12 0.0323
*RES
2 inst_257:ZN net_477:6 0.0010
3 inst_671:A2 net_477:8 0.0050
4 net_477:1 inst_539:A2 0.0050
5 net_477:2 net_477:1 0.0050
6 net_477:3 net_477:2 0.0027
7 net_477:4 net_477:3 0.0050
8 net_477:5 net_477:4 0.0075
9 net_477:6 net_477:5 0.0050
10 net_477:7 inst_257:ZN 0.0050
11 net_477:8 net_477:7 0.0035
12 net_477:8 net_477:9 0.0050
13 net_477:9 net_477:10 0.0081
14 net_477:10 net_477:11 0.0050
15 net_477:12 inst_159:A1 0.0050
16 net_477:12 net_477:11 0.0015
*END

*D_NET net_439 0.1436
*CONN
*I inst_608:Z O
*I inst_161:A2 I
*CAP
1 inst_608:Z 0.0166
2 inst_161:A2 0.0081
3 net_439:1 0.0512
4 net_439:2 0.0512
5 net_439:3 0.0164
*RES
2 net_439:1 inst_608:Z 0.0050
3 net_439:2 net_439:1 0.0050
4 net_439:3 inst_161:A2 0.0010
5 net_439:3 net_439:2 0.0050
*END

*D_NET net_385 0.2759
*CONN
*I inst_520:ZN O
*I inst_262:A1 I
*CAP
1 inst_520:ZN 0.0072
2 inst_262:A1 0.0166
3 net_385:1 0.0196
4 net_385:2 0.0152
5 net_385:3 0.0908
6 net_385:4 0.0908
7 net_385:5 0.0178
8 net_385:6 0.0178
*RES
2 inst_520:ZN net_385:1 0.0010
3 inst_262:A1 net_385:6 0.0050
4 net_385:2 net_385:1 0.0050
5 net_385:3 net_385:2 0.0050
6 net_385:3 net_385:4 0.0088
7 net_385:5 net_385:4 0.0050
8 net_385:5 net_385:6 0.0010
*END

*D_NET net_259 0.0299
*CONN
*I inst_682:ZN O
*I inst_94:A3 I
*CAP
1 inst_682:ZN 0.0149
2 inst_94:A3 0.0149
*RES
2 inst_94:A3 inst_682:ZN 0.0030
*END

*D_NET net_269 0.9094
*CONN
*I inst_63:ZN O
*I inst_65:A2 I
*I inst_55:A2 I
*I inst_285:A1 I
*CAP
1 inst_63:ZN 0.0069
2 inst_65:A2 0.0166
3 inst_55:A2 0.0166
4 inst_285:A1 0.0166
5 net_269:1 0.0864
6 net_269:2 0.0295
7 net_269:3 0.0149
8 net_269:4 0.0149
9 net_269:5 0.1021
10 net_269:6 0.1105
11 net_269:7 0.0541
12 net_269:8 0.0457
13 net_269:9 0.0242
14 net_269:10 0.0247
15 net_269:11 0.0944
16 net_269:12 0.0944
17 net_269:13 0.0082
18 net_269:14 0.0082
19 net_269:15 0.0167
20 net_269:16 0.0167
21 net_269:17 0.0152
22 net_269:18 0.0082
23 net_269:19 0.0153
24 net_269:20 0.0683
*RES
2 net_269:1 inst_65:A2 0.0050
3 net_269:1 net_269:20 0.0050
4 net_269:2 net_269:1 0.0020
5 net_269:2 net_269:3 0.0050
6 net_269:3 net_269:4 0.0010
7 net_269:4 net_269:5 0.0050
8 net_269:6 net_269:5 0.0036
9 net_269:6 net_269:7 0.0010
10 net_269:8 net_269:7 0.0015
11 net_269:8 net_269:9 0.0050
12 net_269:9 net_269:10 0.0010
13 net_269:10 net_269:18 0.0010
14 net_269:10 net_269:11 0.0050
15 net_269:12 net_269:11 0.0036
16 net_269:12 net_269:13 0.0050
17 net_269:13 net_269:14 0.0010
18 net_269:14 net_269:15 0.0050
19 net_269:16 inst_285:A1 0.0050
20 net_269:16 net_269:15 0.0010
21 net_269:17 inst_55:A2 0.0050
22 net_269:18 net_269:17 0.0050
23 net_269:19 inst_63:ZN 0.0010
24 net_269:20 net_269:19 0.0050
*END

*D_NET net_548 0.4191
*CONN
*I inst_573:ZN O
*I inst_216:A4 I
*CAP
1 inst_573:ZN 0.0166
2 inst_216:A4 0.0077
3 net_548:1 0.0367
4 net_548:2 0.0367
5 net_548:3 0.1451
6 net_548:4 0.1451
7 net_548:5 0.0152
8 net_548:6 0.0160
*RES
2 inst_216:A4 net_548:6 0.0010
3 net_548:1 inst_573:ZN 0.0050
4 net_548:1 net_548:2 0.0025
5 net_548:3 net_548:2 0.0050
6 net_548:4 net_548:3 0.0115
7 net_548:5 net_548:4 0.0050
8 net_548:6 net_548:5 0.0050
*END

*D_NET net_469 0.0286
*CONN
*I inst_79:ZN O
*I inst_685:A1 I
*CAP
1 inst_79:ZN 0.0143
2 inst_685:A1 0.0143
*RES
2 inst_79:ZN inst_685:A1 0.0021
*END

*D_NET net_501 1.1958
*CONN
*I inst_674:ZN O
*I inst_554:A2 I
*I inst_166:A1 I
*I inst_209:A1 I
*CAP
1 inst_674:ZN 0.0236
2 inst_554:A2 0.0166
3 inst_166:A1 0.0166
4 inst_209:A1 0.0166
5 net_501:1 0.0544
6 net_501:2 0.0544
7 net_501:3 0.0094
8 net_501:4 0.0094
9 net_501:5 0.1989
10 net_501:6 0.3202
11 net_501:7 0.0474
12 net_501:8 0.0470
13 net_501:9 0.0187
14 net_501:10 0.0152
15 net_501:11 0.0162
16 net_501:12 0.0162
17 net_501:13 0.0414
18 net_501:14 0.0414
19 net_501:15 0.0152
20 net_501:16 0.0153
21 net_501:17 0.0243
22 net_501:18 0.0243
23 net_501:19 0.0160
24 net_501:20 0.0160
25 net_501:21 0.1213
*RES
2 inst_674:ZN net_501:16 0.0010
3 net_501:1 inst_554:A2 0.0050
4 net_501:2 net_501:1 0.0065
5 net_501:3 net_501:2 0.0050
6 net_501:4 net_501:3 0.0010
7 net_501:5 net_501:4 0.0050
8 net_501:6 net_501:5 0.0071
9 net_501:6 net_501:7 0.0050
10 net_501:7 net_501:8 0.0029
11 net_501:8 net_501:9 0.0010
12 net_501:9 net_501:10 0.0050
13 net_501:10 inst_209:A1 0.0050
14 net_501:11 inst_166:A1 0.0050
15 net_501:11 net_501:12 0.0010
16 net_501:13 net_501:12 0.0050
17 net_501:14 net_501:13 0.0047
18 net_501:15 net_501:14 0.0050
19 net_501:16 net_501:15 0.0050
20 net_501:17 inst_674:ZN 0.0050
21 net_501:17 net_501:18 0.0015
22 net_501:19 net_501:18 0.0050
23 net_501:20 net_501:19 0.0010
24 net_501:21 net_501:6 0.0034
25 net_501:21 net_501:20 0.0050
*END

*D_NET net_187 0.2057
*CONN
*I inst_411:ZN O
*I inst_198:A3 I
*CAP
1 inst_411:ZN 0.0177
2 inst_198:A3 0.0166
3 net_187:1 0.0178
4 net_187:2 0.0178
5 net_187:3 0.0219
6 net_187:4 0.0219
7 net_187:5 0.0330
8 net_187:6 0.0330
9 net_187:7 0.0260
*RES
2 inst_411:ZN net_187:7 0.0021
3 net_187:1 inst_198:A3 0.0050
4 net_187:2 net_187:1 0.0010
5 net_187:3 net_187:2 0.0050
6 net_187:3 net_187:4 0.0020
7 net_187:5 net_187:4 0.0050
8 net_187:5 net_187:6 0.0030
9 net_187:7 net_187:6 0.0050
*END

*D_NET net_111 0.7572
*CONN
*I inst_632:ZN O
*I inst_131:A1 I
*I inst_134:A1 I
*I inst_137:A1 I
*I inst_678:A1 I
*CAP
1 inst_632:ZN 0.0234
2 inst_131:A1 0.0166
3 inst_134:A1 0.0166
4 inst_137:A1 0.0166
5 inst_678:A1 0.0166
6 net_111:1 0.0152
7 net_111:2 0.0152
8 net_111:3 0.0511
9 net_111:4 0.0451
10 net_111:5 0.1161
11 net_111:6 0.1161
12 net_111:7 0.0482
13 net_111:8 0.0303
14 net_111:9 0.0163
15 net_111:10 0.0163
16 net_111:11 0.0182
17 net_111:12 0.0182
18 net_111:13 0.0255
19 net_111:14 0.0152
20 net_111:15 0.0337
21 net_111:16 0.0317
22 net_111:17 0.0152
23 net_111:18 0.0397
*RES
2 net_111:1 inst_678:A1 0.0050
3 net_111:1 net_111:2 0.0010
4 net_111:3 net_111:2 0.0050
5 net_111:3 net_111:18 0.0041
6 net_111:4 net_111:3 0.0015
7 net_111:4 net_111:5 0.0050
8 net_111:5 net_111:6 0.0040
9 net_111:6 net_111:7 0.0050
10 net_111:7 net_111:13 0.0010
11 net_111:8 net_111:7 0.0026
12 net_111:8 net_111:9 0.0050
13 net_111:9 net_111:10 0.0010
14 net_111:10 inst_137:A1 0.0050
15 net_111:11 inst_134:A1 0.0050
16 net_111:12 net_111:11 0.0010
17 net_111:13 net_111:12 0.0050
18 net_111:14 inst_131:A1 0.0050
19 net_111:15 net_111:4 0.0026
20 net_111:15 net_111:14 0.0050
21 net_111:16 inst_632:ZN 0.0031
22 net_111:17 net_111:16 0.0050
23 net_111:18 net_111:17 0.0050
*END

*D_NET net_264 0.1283
*CONN
*I inst_477:ZN O
*I inst_194:A4 I
*CAP
1 inst_477:ZN 0.0219
2 inst_194:A4 0.0076
3 net_264:1 0.0159
4 net_264:2 0.0264
5 net_264:3 0.0264
6 net_264:4 0.0302
*RES
2 inst_477:ZN net_264:4 0.0031
3 net_264:1 inst_194:A4 0.0010
4 net_264:2 net_264:1 0.0050
5 net_264:2 net_264:3 0.0015
6 net_264:4 net_264:3 0.0050
*END

*D_NET net_90 0.1197
*CONN
*I inst_352:ZN O
*I inst_223:A1 I
*CAP
1 inst_352:ZN 0.0166
2 inst_223:A1 0.0166
3 net_90:1 0.0175
4 net_90:2 0.0198
5 net_90:3 0.0258
6 net_90:4 0.0235
*RES
2 inst_223:A1 net_90:4 0.0050
3 net_90:1 inst_352:ZN 0.0050
4 net_90:2 net_90:1 0.0010
5 net_90:3 net_90:2 0.0010
6 net_90:4 net_90:3 0.0015
*END

*D_NET net_225 0.1412
*CONN
*I inst_442:ZN O
*I inst_661:A3 I
*CAP
1 inst_442:ZN 0.0166
2 inst_661:A3 0.0166
3 net_225:1 0.0203
4 net_225:2 0.0226
5 net_225:3 0.0337
6 net_225:4 0.0314
*RES
2 inst_442:ZN net_225:4 0.0050
3 net_225:1 inst_661:A3 0.0050
4 net_225:1 net_225:2 0.0020
5 net_225:2 net_225:3 0.0010
6 net_225:3 net_225:4 0.0015
*END

*D_NET n116 6.4530
*CONN
*P n116 I
*I inst_615:A I
*I inst_300:A2 I
*I inst_311:A1 I
*I inst_312:A1 I
*I inst_14:B I
*I inst_341:A1 I
*I inst_132:A1 I
*I inst_380:A1 I
*I inst_415:A1 I
*I inst_416:A1 I
*I inst_471:A1 I
*I inst_489:A1 I
*I inst_522:A1 I
*CAP
1 n116 0.2268
2 inst_615:A 0.0166
3 inst_300:A2 0.0166
4 inst_311:A1 0.0166
5 inst_312:A1 0.0166
6 inst_14:B 0.0166
7 inst_341:A1 0.0166
8 inst_132:A1 0.0166
9 inst_380:A1 0.0166
10 inst_415:A1 0.0166
11 inst_416:A1 0.0166
12 inst_471:A1 0.0166
13 inst_489:A1 0.0166
14 inst_522:A1 0.0166
15 n116:1 0.0227
16 n116:2 0.0370
17 n116:3 0.0472
18 n116:4 0.0472
19 n116:5 0.0185
20 n116:6 0.0349
21 n116:7 0.0279
22 n116:8 0.1187
23 n116:9 0.1149
24 n116:10 0.1243
25 n116:11 0.4540
26 n116:12 0.3296
27 n116:13 0.0254
28 n116:14 0.0254
29 n116:15 0.0352
30 n116:16 0.0635
31 n116:17 0.2101
32 n116:18 0.2101
33 n116:19 0.0175
34 n116:20 0.0175
35 n116:21 0.0522
36 n116:22 0.0519
37 n116:23 0.0483
38 n116:24 0.0725
39 n116:25 0.0716
40 n116:26 0.0269
41 n116:27 0.0269
42 n116:28 0.0291
43 n116:29 0.0291
44 n116:30 0.0918
45 n116:31 0.0918
46 n116:32 0.0246
47 n116:33 0.0417
48 n116:34 0.0152
49 n116:35 0.0175
50 n116:36 0.0333
51 n116:37 0.0310
52 n116:38 0.0698
53 n116:39 0.0782
54 n116:40 0.0672
55 n116:41 0.0672
56 n116:42 0.1052
57 n116:43 0.1236
58 n116:44 0.1234
59 n116:45 0.1234
60 n116:46 0.0141
61 n116:47 0.0177
62 n116:48 0.0168
63 n116:49 0.0168
64 n116:50 0.0360
65 n116:51 0.0466
66 n116:52 0.0197
67 n116:53 0.0197
68 n116:54 0.0160
69 n116:55 0.0627
70 n116:56 0.0627
71 n116:57 0.0490
72 n116:58 0.1134
73 n116:59 0.0720
74 n116:60 0.0705
75 n116:61 0.0705
76 n116:62 0.0203
77 n116:63 0.0247
78 n116:64 0.0182
79 n116:65 0.0182
80 n116:66 0.0344
81 n116:67 0.0344
82 n116:68 0.0295
83 n116:69 0.0295
84 n116:70 0.0315
85 n116:71 0.0315
86 n116:72 0.0359
87 n116:73 0.0457
88 n116:74 0.0457
89 n116:75 0.0477
90 n116:76 0.0551
91 n116:77 0.0478
92 n116:78 0.0403
93 n116:79 0.0403
94 n116:80 0.2963
95 n116:81 0.2963
96 n116:82 0.0247
97 n116:83 0.0152
98 n116:84 0.0150
99 n116:85 0.0150
100 n116:86 0.2382
101 n116:87 0.1287
102 n116:88 0.1287
103 n116:89 0.0225
*RES
2 n116:1 inst_615:A 0.0050
3 n116:2 n116:1 0.0015
4 n116:3 n116:2 0.0050
5 n116:3 n116:4 0.0061
6 n116:5 n116:4 0.0050
7 n116:5 n116:6 0.0010
8 n116:6 inst_341:A1 0.0050
9 n116:6 n116:7 0.0015
10 n116:8 n116:7 0.0050
11 n116:8 n116:9 0.0104
12 n116:10 n116:9 0.0050
13 n116:10 n116:11 0.0025
14 n116:11 n116:12 0.0065
15 n116:11 n116:85 0.0050
16 n116:13 n116:12 0.0050
17 n116:13 n116:14 0.0011
18 n116:15 n116:14 0.0050
19 n116:15 n116:16 0.0020
20 n116:16 n116:72 0.0025
21 n116:17 n116:16 0.0050
22 n116:18 n116:17 0.0176
23 n116:19 n116:18 0.0050
24 n116:19 n116:20 0.0010
25 n116:21 n116:20 0.0050
26 n116:22 n116:21 0.0061
27 n116:23 n116:22 0.0010
28 n116:24 n116:23 0.0041
29 n116:24 n116:71 0.0050
30 n116:25 n116:24 0.0023
31 n116:26 n116:25 0.0050
32 n116:26 n116:27 0.0010
33 n116:28 n116:27 0.0050
34 n116:29 n116:28 0.0030
35 n116:30 n116:29 0.0050
36 n116:30 n116:31 0.0046
37 n116:32 n116:31 0.0050
38 n116:33 n116:32 0.0015
39 n116:33 n116:34 0.0050
40 n116:34 inst_380:A1 0.0050
41 n116:35 inst_312:A1 0.0050
42 n116:35 n116:36 0.0010
43 n116:36 n116:37 0.0015
44 n116:38 n116:37 0.0050
45 n116:38 n116:39 0.0072
46 n116:39 n116:54 0.0010