*SPEF "IEEE 1481-1998"
*DESIGN "changes"
*DATE "Tue Dec 02 20:46:35 2014"
*VENDOR "TAU 2015 Contest"
*PROGRAM "Benchmark Parasitic Generator"
*VERSION "0.0"
*DESIGN_FLOW "NETLIST_TYPE_VERILOG"
*DIVIDER /
*DELIMITER :
*BUS_DELIMITER [ ]
*T_UNIT 1 PS
*C_UNIT 1 FF
*R_UNIT 1 KOHM
*L_UNIT 1 UH

*D_NET TAUNET_4 1.7439
*CONN
*I inst_71:ZN O
*I TAUGATE_4:A I
*CAP
1 inst_71:ZN 0.2611
2 TAUNET_4:1 0.4098
3 TAUNET_4:2 0.5009
4 TAUNET_4:3 0.2843
5 TAUGATE_4:A 0.2878
*RES
2 inst_71:ZN TAUNET_4:1 0.1659
3 TAUNET_4:1 TAUNET_4:2 0.2742
4 TAUNET_4:2 TAUNET_4:3 0.3494
5 TAUNET_4:3 TAUGATE_4:A 0.1485
*END

*D_NET TAUNET_2 1.3760
*CONN
*I inst_241:ZN O
*I TAUGATE_2:A I
*CAP
1 inst_241:ZN 0.2110
2 TAUNET_2:1 0.3070
3 TAUNET_2:2 0.3583
4 TAUNET_2:3 0.1395
5 TAUNET_2:4 0.0646
6 TAUNET_2:5 0.0794
7 TAUGATE_2:A 0.2161
*RES
2 inst_241:ZN TAUNET_2:1 0.1614
3 TAUNET_2:1 TAUNET_2:2 0.3312
4 TAUNET_2:2 TAUNET_2:3 0.3755
5 TAUNET_2:3 TAUNET_2:4 0.4644
6 TAUNET_2:4 TAUNET_2:5 0.4559
7 TAUNET_2:5 TAUGATE_2:A 0.4050
*END

*D_NET net_331 0.4849
*CONN
*I TAUGATE_2:Z O
*I inst_94:A2 I
*CAP
1 TAUGATE_2:Z 0.1670
2 net_331:1 0.2440
3 net_331:2 0.0332
4 inst_94:A2 0.0406
*RES
2 TAUGATE_2:Z net_331:1 0.2732
3 net_331:1 net_331:2 0.0073
4 net_331:2 inst_94:A2 0.1308
*END

*D_NET TAUNET_3 1.8161
*CONN
*I inst_156:ZN O
*I TAUGATE_3:A I
*CAP
1 inst_156:ZN 0.2909
2 TAUNET_3:1 0.0740
3 TAUNET_3:2 0.4871
4 TAUNET_3:3 0.4951
5 TAUNET_3:4 0.4125
6 TAUGATE_3:A 0.0565
*RES
2 inst_156:ZN TAUNET_3:1 0.1285
3 TAUNET_3:1 TAUNET_3:2 0.0292
4 TAUNET_3:2 TAUNET_3:3 0.2926
5 TAUNET_3:3 TAUNET_3:4 0.4507
6 TAUNET_3:4 TAUGATE_3:A 0.3356
*END

*D_NET net_380 1.9602
*CONN
*I TAUGATE_4:Z O
*I inst_271:A2 I
*CAP
1 TAUGATE_4:Z 0.3845
2 net_380:1 0.3056
3 net_380:2 0.3464
4 net_380:3 0.0305
5 net_380:4 0.2383
6 net_380:5 0.4020
7 inst_271:A2 0.2529
*RES
2 TAUGATE_4:Z net_380:1 0.2665
3 net_380:1 net_380:2 0.4354
4 net_380:2 net_380:3 0.1977
5 net_380:3 net_380:4 0.0788
6 net_380:4 net_380:5 0.3276
7 net_380:5 inst_271:A2 0.3833
*END

*D_NET net_389 4.0085
*CONN
*I TAUGATE_3:Z O
*I inst_525:A2 I
*I inst_522:A2 I
*I inst_523:A2 I
*I inst_524:A2 I
*CAP
1 TAUGATE_3:Z 0.0716
2 net_389:1 0.1922
3 net_389:2 0.2805
4 net_389:3 0.1322
5 inst_523:A2 0.1905
6 net_389:4 0.2211
7 net_389:5 0.1955
8 net_389:6 0.1868
9 net_389:7 0.4889
10 inst_522:A2 0.0703
11 net_389:8 0.3990
12 inst_525:A2 0.4035
13 net_389:9 0.3196
14 net_389:10 0.4976
15 inst_524:A2 0.3591
*RES
2 TAUGATE_3:Z net_389:1 0.4017
3 net_389:1 net_389:2 0.4680
4 net_389:2 net_389:3 0.2976
5 net_389:3 inst_523:A2 0.2331
6 net_389:2 net_389:4 0.3298
7 net_389:4 net_389:5 0.4131
8 net_389:5 net_389:6 0.3310
9 net_389:6 net_389:7 0.2621
10 net_389:7 inst_522:A2 0.4792
11 net_389:3 net_389:8 0.0219
12 net_389:8 inst_525:A2 0.0830
13 net_389:8 net_389:9 0.2780
14 net_389:9 net_389:10 0.2022
15 net_389:10 inst_524:A2 0.1593
*END

