*SPEF "IEEE 1481-1998"
*DESIGN "changes"
*DATE "Tue Dec 02 20:46:35 2014"
*VENDOR "TAU 2015 Contest"
*PROGRAM "Benchmark Parasitic Generator"
*VERSION "0.0"
*DESIGN_FLOW "NETLIST_TYPE_VERILOG"
*DIVIDER /
*DELIMITER :
*BUS_DELIMITER [ ]
*T_UNIT 1 PS
*C_UNIT 1 FF
*R_UNIT 1 KOHM
*L_UNIT 1 UH

*D_NET TAUNET_13 1.7439
*CONN
*I inst_369:ZN O
*I TAUGATE_13:A I
*CAP
1 inst_369:ZN 0.2611
2 TAUNET_13:1 0.4098
3 TAUNET_13:2 0.5009
4 TAUNET_13:3 0.2843
5 TAUGATE_13:A 0.2878
*RES
2 inst_369:ZN TAUNET_13:1 0.1659
3 TAUNET_13:1 TAUNET_13:2 0.2742
4 TAUNET_13:2 TAUNET_13:3 0.3494
5 TAUNET_13:3 TAUGATE_13:A 0.1485
*END

*D_NET TAUNET_12 1.3760
*CONN
*I inst_464:ZN O
*I TAUGATE_12:A I
*CAP
1 inst_464:ZN 0.2110
2 TAUNET_12:1 0.3070
3 TAUNET_12:2 0.3583
4 TAUNET_12:3 0.1395
5 TAUNET_12:4 0.0646
6 TAUNET_12:5 0.0794
7 TAUGATE_12:A 0.2161
*RES
2 inst_464:ZN TAUNET_12:1 0.1614
3 TAUNET_12:1 TAUNET_12:2 0.3312
4 TAUNET_12:2 TAUNET_12:3 0.3755
5 TAUNET_12:3 TAUNET_12:4 0.4644
6 TAUNET_12:4 TAUNET_12:5 0.4559
7 TAUNET_12:5 TAUGATE_12:A 0.4050
*END

*D_NET net_176 0.4849
*CONN
*I TAUGATE_58:Z O
*I inst_485:A2 I
*CAP
1 TAUGATE_58:Z 0.1670
2 net_176:1 0.2440
3 net_176:2 0.0332
4 inst_485:A2 0.0406
*RES
2 TAUGATE_58:Z net_176:1 0.2732
3 net_176:1 net_176:2 0.0073
4 net_176:2 inst_485:A2 0.1308
*END

*D_NET net_152 1.8161
*CONN
*I TAUGATE_47:Z O
*I inst_658:A3 I
*CAP
1 TAUGATE_47:Z 0.2909
2 net_152:1 0.0740
3 net_152:2 0.4871
4 net_152:3 0.4951
5 net_152:4 0.4125
6 inst_658:A3 0.0565
*RES
2 TAUGATE_47:Z net_152:1 0.1285
3 net_152:1 net_152:2 0.0292
4 net_152:2 net_152:3 0.2926
5 net_152:3 net_152:4 0.4507
6 net_152:4 inst_658:A3 0.3356
*END

*D_NET net_657 1.9602
*CONN
*I TAUGATE_29:Z O
*I inst_47:A I
*CAP
1 TAUGATE_29:Z 0.3845
2 net_657:1 0.3056
3 net_657:2 0.3464
4 net_657:3 0.0305
5 net_657:4 0.2383
6 net_657:5 0.4020
7 inst_47:A 0.2529
*RES
2 TAUGATE_29:Z net_657:1 0.2665
3 net_657:1 net_657:2 0.4354
4 net_657:2 net_657:3 0.1977
5 net_657:3 net_657:4 0.0788
6 net_657:4 net_657:5 0.3276
7 net_657:5 inst_47:A 0.3833
*END

*D_NET net_526 4.0085
*CONN
*I TAUGATE_21:Z O
*I inst_207:A2 I
*I inst_26:A I
*I inst_209:A2 I
*I inst_273:A3 I
*CAP
1 TAUGATE_21:Z 0.0716
2 net_526:1 0.1922
3 net_526:2 0.2805
4 net_526:3 0.1322
5 inst_209:A2 0.1905
6 net_526:4 0.2211
7 net_526:5 0.1955
8 net_526:6 0.1868
9 net_526:7 0.4889
10 inst_26:A 0.0703
11 net_526:8 0.3990
12 inst_207:A2 0.4035
13 net_526:9 0.3196
14 net_526:10 0.4976
15 inst_273:A3 0.3591
*RES
2 TAUGATE_21:Z net_526:1 0.4017
3 net_526:1 net_526:2 0.4680
4 net_526:2 net_526:3 0.2976
5 net_526:3 inst_209:A2 0.2331
6 net_526:2 net_526:4 0.3298
7 net_526:4 net_526:5 0.4131
8 net_526:5 net_526:6 0.3310
9 net_526:6 net_526:7 0.2621
10 net_526:7 inst_26:A 0.4792
11 net_526:3 net_526:8 0.0219
12 net_526:8 inst_207:A2 0.0830
13 net_526:8 net_526:9 0.2780
14 net_526:9 net_526:10 0.2022
15 net_526:10 inst_273:A3 0.1593
*END

*D_NET TAUNET_35 2.3519
*CONN
*I inst_437:ZN O
*I TAUGATE_35:A I
*CAP
1 inst_437:ZN 0.3498
2 TAUNET_35:1 0.4519
3 TAUNET_35:2 0.4658
4 TAUNET_35:3 0.3690
5 TAUNET_35:4 0.4019
6 TAUNET_35:5 0.0632
7 TAUGATE_35:A 0.2503
*RES
2 inst_437:ZN TAUNET_35:1 0.4700
3 TAUNET_35:1 TAUNET_35:2 0.3789
4 TAUNET_35:2 TAUNET_35:3 0.3545
5 TAUNET_35:3 TAUNET_35:4 0.1033
6 TAUNET_35:4 TAUNET_35:5 0.4316
7 TAUNET_35:5 TAUGATE_35:A 0.1782
*END

*D_NET net_429 0.4495
*CONN
*I TAUGATE_57:Z O
*I inst_546:A2 I
*CAP
1 TAUGATE_57:Z 0.0376
2 net_429:1 0.3594
3 inst_546:A2 0.0525
*RES
2 TAUGATE_57:Z net_429:1 0.3248
3 net_429:1 inst_546:A2 0.2597
*END

*D_NET net_614 1.7670
*CONN
*I TAUGATE_59:Z O
*I inst_182:A2 I
*CAP
1 TAUGATE_59:Z 0.3840
2 net_614:1 0.3726
3 net_614:2 0.2980
4 net_614:3 0.2454
5 inst_182:A2 0.4670
*RES
2 TAUGATE_59:Z net_614:1 0.1921
3 net_614:1 net_614:2 0.1376
4 net_614:2 net_614:3 0.4443
5 net_614:3 inst_182:A2 0.1288
*END

*D_NET net_140 0.9235
*CONN
*I TAUGATE_54:Z O
*I inst_501:A2 I
*CAP
1 TAUGATE_54:Z 0.1405
2 net_140:1 0.3699
3 inst_501:A2 0.4131
*RES
2 TAUGATE_54:Z net_140:1 0.4004
3 net_140:1 inst_501:A2 0.4814
*END

*D_NET net_255 0.7257
*CONN
*I TAUGATE_10:Z O
*I inst_194:A3 I
*CAP
1 TAUGATE_10:Z 0.3915
2 net_255:1 0.3089
3 inst_194:A3 0.0253
*RES
2 TAUGATE_10:Z net_255:1 0.3105
3 net_255:1 inst_194:A3 0.1881
*END

*D_NET TAUNET_46 1.4805
*CONN
*P n41 I
*I TAUGATE_46:A I
*CAP
1 n41 0.1592
2 TAUNET_46:1 0.2761
3 TAUNET_46:2 0.3643
4 TAUNET_46:3 0.2288
5 TAUNET_46:4 0.0666
6 TAUGATE_46:A 0.3854
*RES
2 n41 TAUNET_46:1 0.3580
3 TAUNET_46:1 TAUNET_46:2 0.3774
4 TAUNET_46:2 TAUNET_46:3 0.2731
5 TAUNET_46:3 TAUNET_46:4 0.1525
6 TAUNET_46:4 TAUGATE_46:A 0.0518
*END

*D_NET n1698 1.2665
*CONN
*I TAUGATE_42:Z O
*I inst_115:A1 I
*CAP
1 TAUGATE_42:Z 0.2154
2 n1698:1 0.1648
3 n1698:2 0.1855
4 n1698:3 0.0112
5 n1698:4 0.3530
6 n1698:5 0.1128
7 inst_115:A1 0.2239
*RES
2 TAUGATE_42:Z n1698:1 0.0917
3 n1698:1 n1698:2 0.4230
4 n1698:2 n1698:3 0.1494
5 n1698:3 n1698:4 0.3290
6 n1698:4 n1698:5 0.1620
7 n1698:5 inst_115:A1 0.0029
*END

*D_NET TAUNET_24 1.0297
*CONN
*I inst_102:ZN O
*I TAUGATE_24:A I
*CAP
1 inst_102:ZN 0.1903
2 TAUNET_24:1 0.3484
3 TAUNET_24:2 0.0801
4 TAUNET_24:3 0.1392
5 TAUNET_24:4 0.1891
6 TAUNET_24:5 0.0464
7 TAUGATE_24:A 0.0364
*RES
2 inst_102:ZN TAUNET_24:1 0.0279
3 TAUNET_24:1 TAUNET_24:2 0.4104
4 TAUNET_24:2 TAUNET_24:3 0.0649
5 TAUNET_24:3 TAUNET_24:4 0.0510
6 TAUNET_24:4 TAUNET_24:5 0.1600
7 TAUNET_24:5 TAUGATE_24:A 0.1748
*END

*D_NET TAUNET_16 1.6599
*CONN
*I inst_561:ZN O
*I TAUGATE_16:A I
*CAP
1 inst_561:ZN 0.1076
2 TAUNET_16:1 0.3388
3 TAUNET_16:2 0.4657
4 TAUNET_16:3 0.3595
5 TAUNET_16:4 0.2471
6 TAUNET_16:5 0.0832
7 TAUGATE_16:A 0.0580
*RES
2 inst_561:ZN TAUNET_16:1 0.3736
3 TAUNET_16:1 TAUNET_16:2 0.0395
4 TAUNET_16:2 TAUNET_16:3 0.3644
5 TAUNET_16:3 TAUNET_16:4 0.0829
6 TAUNET_16:4 TAUNET_16:5 0.1977
7 TAUNET_16:5 TAUGATE_16:A 0.4694
*END

*D_NET TAUNET_31 2.0853
*CONN
*I inst_176:ZN O
*I TAUGATE_31:A I
*CAP
1 inst_176:ZN 0.3882
2 TAUNET_31:1 0.0413
3 TAUNET_31:2 0.4651
4 TAUNET_31:3 0.4065
5 TAUNET_31:4 0.3164
6 TAUNET_31:5 0.3513
7 TAUGATE_31:A 0.1165
*RES
2 inst_176:ZN TAUNET_31:1 0.0986
3 TAUNET_31:1 TAUNET_31:2 0.2243
4 TAUNET_31:2 TAUNET_31:3 0.1286
5 TAUNET_31:3 TAUNET_31:4 0.4269
6 TAUNET_31:4 TAUNET_31:5 0.2482
7 TAUNET_31:5 TAUGATE_31:A 0.2195
*END

*D_NET TAUNET_25 1.7569
*CONN
*I inst_111:ZN O
*I TAUGATE_25:A I
*CAP
1 inst_111:ZN 0.4091
2 TAUNET_25:1 0.3587
3 TAUNET_25:2 0.1869
4 TAUNET_25:3 0.4974
5 TAUGATE_25:A 0.3047
*RES
2 inst_111:ZN TAUNET_25:1 0.1200
3 TAUNET_25:1 TAUNET_25:2 0.4969
4 TAUNET_25:2 TAUNET_25:3 0.1210
5 TAUNET_25:3 TAUGATE_25:A 0.1733
*END

*D_NET TAUNET_27 1.1896
*CONN
*I inst_646:ZN O
*I TAUGATE_27:A I
*CAP
1 inst_646:ZN 0.0283
2 TAUNET_27:1 0.2945
3 TAUNET_27:2 0.3177
4 TAUNET_27:3 0.2101
5 TAUGATE_27:A 0.3390
*RES
2 inst_646:ZN TAUNET_27:1 0.2046
3 TAUNET_27:1 TAUNET_27:2 0.3404
4 TAUNET_27:2 TAUNET_27:3 0.1317
5 TAUNET_27:3 TAUGATE_27:A 0.3617
*END

*D_NET net_359 1.6635
*CONN
*I TAUGATE_34:Z O
*I inst_200:A3 I
*I inst_192:A3 I
*CAP
1 TAUGATE_34:Z 0.3629
2 net_359:1 0.3900
3 net_359:2 0.0557
4 net_359:3 0.1253
5 inst_200:A3 0.2716
6 net_359:4 0.0419
7 net_359:5 0.2773
8 net_359:6 0.0903
9 inst_192:A3 0.0485
*RES
2 TAUGATE_34:Z net_359:1 0.3735
3 net_359:1 net_359:2 0.1079
4 net_359:2 net_359:3 0.3323
5 net_359:3 inst_200:A3 0.2907
6 net_359:2 net_359:4 0.4602
7 net_359:4 net_359:5 0.4262
8 net_359:5 net_359:6 0.2009
9 net_359:6 inst_192:A3 0.3114
*END

*D_NET TAUNET_28 1.7860
*CONN
*I inst_322:ZN O
*I TAUGATE_28:A I
*CAP
1 inst_322:ZN 0.3972
2 TAUNET_28:1 0.2443
3 TAUNET_28:2 0.2458
4 TAUNET_28:3 0.3734
5 TAUNET_28:4 0.1567
6 TAUNET_28:5 0.1247
7 TAUGATE_28:A 0.2439
*RES
2 inst_322:ZN TAUNET_28:1 0.2588
3 TAUNET_28:1 TAUNET_28:2 0.4474
4 TAUNET_28:2 TAUNET_28:3 0.3528
5 TAUNET_28:3 TAUNET_28:4 0.0472
6 TAUNET_28:4 TAUNET_28:5 0.4436
7 TAUNET_28:5 TAUGATE_28:A 0.1981
*END

*D_NET TAUNET_57 1.5484
*CONN
*I inst_205:ZN O
*I TAUGATE_57:A I
*CAP
1 inst_205:ZN 0.0169
2 TAUNET_57:1 0.4684
3 TAUNET_57:2 0.2490
4 TAUNET_57:3 0.0579
5 TAUNET_57:4 0.0423
6 TAUNET_57:5 0.2861
7 TAUGATE_57:A 0.4278
*RES
2 inst_205:ZN TAUNET_57:1 0.3875
3 TAUNET_57:1 TAUNET_57:2 0.4796
4 TAUNET_57:2 TAUNET_57:3 0.3740
5 TAUNET_57:3 TAUNET_57:4 0.1554
6 TAUNET_57:4 TAUNET_57:5 0.0209
7 TAUNET_57:5 TAUGATE_57:A 0.4380
*END

*D_NET net_548 1.7573
*CONN
*I TAUGATE_41:Z O
*I inst_216:A4 I
*CAP
1 TAUGATE_41:Z 0.4990
2 net_548:1 0.1115
3 net_548:2 0.4947
4 net_548:3 0.3666
5 inst_216:A4 0.2854
*RES
2 TAUGATE_41:Z net_548:1 0.4464
3 net_548:1 net_548:2 0.2438
4 net_548:2 net_548:3 0.2969
5 net_548:3 inst_216:A4 0.3091
*END

*D_NET TAUNET_37 1.4812
*CONN
*I inst_170:ZN O
*I TAUGATE_37:A I
*CAP
1 inst_170:ZN 0.2264
2 TAUNET_37:1 0.2044
3 TAUNET_37:2 0.1531
4 TAUNET_37:3 0.3886
5 TAUNET_37:4 0.2618
6 TAUGATE_37:A 0.2468
*RES
2 inst_170:ZN TAUNET_37:1 0.4002
3 TAUNET_37:1 TAUNET_37:2 0.3652
4 TAUNET_37:2 TAUNET_37:3 0.1857
5 TAUNET_37:3 TAUNET_37:4 0.0562
6 TAUNET_37:4 TAUGATE_37:A 0.0882
*END

*D_NET TAUNET_32 0.8319
*CONN
*I inst_61:ZN O
*I TAUGATE_32:A I
*CAP
1 inst_61:ZN 0.2715
2 TAUNET_32:1 0.4145
3 TAUGATE_32:A 0.1459
*RES
2 inst_61:ZN TAUNET_32:1 0.1130
3 TAUNET_32:1 TAUGATE_32:A 0.1026
*END

*D_NET TAUNET_38 0.4701
*CONN
*I inst_291:ZN O
*I TAUGATE_38:A I
*CAP
1 inst_291:ZN 0.1095
2 TAUNET_38:1 0.1417
3 TAUGATE_38:A 0.2190
*RES
2 inst_291:ZN TAUNET_38:1 0.4826
3 TAUNET_38:1 TAUGATE_38:A 0.1138
*END

*D_NET TAUNET_40 1.1966
*CONN
*I inst_512:ZN O
*I TAUGATE_40:A I
*CAP
1 inst_512:ZN 0.3663
2 TAUNET_40:1 0.0526
3 TAUNET_40:2 0.2388
4 TAUNET_40:3 0.1787
5 TAUGATE_40:A 0.3603
*RES
2 inst_512:ZN TAUNET_40:1 0.0603
3 TAUNET_40:1 TAUNET_40:2 0.0863
4 TAUNET_40:2 TAUNET_40:3 0.3102
5 TAUNET_40:3 TAUGATE_40:A 0.1239
*END

*D_NET TAUNET_20 1.6234
*CONN
*I inst_150:ZN O
*I TAUGATE_20:A I
*CAP
1 inst_150:ZN 0.0055
2 TAUNET_20:1 0.2412
3 TAUNET_20:2 0.3995
4 TAUNET_20:3 0.4441
5 TAUNET_20:4 0.4218
6 TAUNET_20:5 0.0848
7 TAUGATE_20:A 0.0266
*RES
2 inst_150:ZN TAUNET_20:1 0.0274
3 TAUNET_20:1 TAUNET_20:2 0.4218
4 TAUNET_20:2 TAUNET_20:3 0.2061
5 TAUNET_20:3 TAUNET_20:4 0.2110
6 TAUNET_20:4 TAUNET_20:5 0.4583
7 TAUNET_20:5 TAUGATE_20:A 0.3985
*END

*D_NET net_418 1.9898
*CONN
*I TAUGATE_14:Z O
*I inst_269:A1 I
*CAP
1 TAUGATE_14:Z 0.0725
2 net_418:1 0.3124
3 net_418:2 0.3685
4 net_418:3 0.4317
5 net_418:4 0.1801
6 net_418:5 0.2826
7 inst_269:A1 0.3420
*RES
2 TAUGATE_14:Z net_418:1 0.0965
3 net_418:1 net_418:2 0.2555
4 net_418:2 net_418:3 0.1304
5 net_418:3 net_418:4 0.3675
6 net_418:4 net_418:5 0.4634
7 net_418:5 inst_269:A1 0.2869
*END

*D_NET net_90 0.5511
*CONN
*I TAUGATE_39:Z O
*I inst_223:A1 I
*CAP
1 TAUGATE_39:Z 0.1182
2 net_90:1 0.0608
3 inst_223:A1 0.3721
*RES
2 TAUGATE_39:Z net_90:1 0.4648
3 net_90:1 inst_223:A1 0.2376
*END

*D_NET net_225 0.8353
*CONN
*I TAUGATE_55:Z O
*I inst_661:A3 I
*CAP
1 TAUGATE_55:Z 0.3081
2 net_225:1 0.0264
3 net_225:2 0.2502
4 inst_661:A3 0.2506
*RES
2 TAUGATE_55:Z net_225:1 0.4486
3 net_225:1 net_225:2 0.0641
4 net_225:2 inst_661:A3 0.0138
*END

*D_NET net_219 0.7959
*CONN
*I TAUGATE_35:Z O
*I inst_241:A1 I
*CAP
1 TAUGATE_35:Z 0.0204
2 net_219:1 0.1001
3 net_219:2 0.2747
4 net_219:3 0.1704
5 inst_241:A1 0.2303
*RES
2 TAUGATE_35:Z net_219:1 0.0121
3 net_219:1 net_219:2 0.0620
4 net_219:2 net_219:3 0.0267
5 net_219:3 inst_241:A1 0.1278
*END

*D_NET TAUNET_14 1.5058
*CONN
*I inst_663:ZN O
*I TAUGATE_14:A I
*CAP
1 inst_663:ZN 0.3621
2 TAUNET_14:1 0.3490
3 TAUNET_14:2 0.4751
4 TAUGATE_14:A 0.3195
*RES
2 inst_663:ZN TAUNET_14:1 0.4748
3 TAUNET_14:1 TAUNET_14:2 0.2505
4 TAUNET_14:2 TAUGATE_14:A 0.2036
*END

*D_NET TAUNET_49 1.2849
*CONN
*I inst_611:Z O
*I TAUGATE_49:A I
*CAP
1 inst_611:Z 0.0185
2 TAUNET_49:1 0.2437
3 TAUNET_49:2 0.3641
4 TAUNET_49:3 0.1411
5 TAUNET_49:4 0.2452
6 TAUGATE_49:A 0.2723
*RES
2 inst_611:Z TAUNET_49:1 0.2079
3 TAUNET_49:1 TAUNET_49:2 0.2449
4 TAUNET_49:2 TAUNET_49:3 0.0406
5 TAUNET_49:3 TAUNET_49:4 0.0917
6 TAUNET_49:4 TAUGATE_49:A 0.0078
*END

*D_NET net_142 0.3723
*CONN
*I TAUGATE_52:Z O
*I inst_500:A2 I
*CAP
1 TAUGATE_52:Z 0.0264
2 net_142:1 0.1906
3 inst_500:A2 0.1553
*RES
2 TAUGATE_52:Z net_142:1 0.0937
3 net_142:1 inst_500:A2 0.2944
*END

*D_NET TAUNET_50 0.9828
*CONN
*I inst_329:ZN O
*I TAUGATE_50:A I
*CAP
1 inst_329:ZN 0.0209
2 TAUNET_50:1 0.1067
3 TAUNET_50:2 0.4881
4 TAUGATE_50:A 0.3672
*RES
2 inst_329:ZN TAUNET_50:1 0.4629
3 TAUNET_50:1 TAUNET_50:2 0.1157
4 TAUNET_50:2 TAUGATE_50:A 0.1901
*END

*D_NET net_249 1.4760
*CONN
*I TAUGATE_12:Z O
*I inst_194:A1 I
*CAP
1 TAUGATE_12:Z 0.5008
2 net_249:1 0.3428
3 net_249:2 0.2325
4 net_249:3 0.2733
5 inst_194:A1 0.1266
*RES
2 TAUGATE_12:Z net_249:1 0.3814
3 net_249:1 net_249:2 0.1363
4 net_249:2 net_249:3 0.3277
5 net_249:3 inst_194:A1 0.3144
*END

*D_NET TAUNET_23 1.3785
*CONN
*I inst_218:ZN O
*I TAUGATE_23:A I
*CAP
1 inst_218:ZN 0.3676
2 TAUNET_23:1 0.4423
3 TAUNET_23:2 0.1159
4 TAUGATE_23:A 0.4527
*RES
2 inst_218:ZN TAUNET_23:1 0.1465
3 TAUNET_23:1 TAUNET_23:2 0.1463
4 TAUNET_23:2 TAUGATE_23:A 0.4621
*END

*D_NET net_330 0.8463
*CONN
*I TAUGATE_40:Z O
*I inst_259:A3 I
*CAP
1 TAUGATE_40:Z 0.0227
2 net_330:1 0.4114
3 net_330:2 0.0715
4 net_330:3 0.1546
5 inst_259:A3 0.1861
*RES
2 TAUGATE_40:Z net_330:1 0.4367
3 net_330:1 net_330:2 0.3452
4 net_330:2 net_330:3 0.0313
5 net_330:3 inst_259:A3 0.1217
*END

*D_NET TAUNET_39 0.7321
*CONN
*I inst_352:ZN O
*I TAUGATE_39:A I
*CAP
1 inst_352:ZN 0.1222
2 TAUNET_39:1 0.1692
3 TAUGATE_39:A 0.4407
*RES
2 inst_352:ZN TAUNET_39:1 0.4978
3 TAUNET_39:1 TAUGATE_39:A 0.2563
*END

*D_NET net_95 3.5582
*CONN
*I TAUGATE_28:Z O
*I inst_360:A2 I
*I inst_130:A2 I
*CAP
1 TAUGATE_28:Z 0.2603
2 net_95:1 0.3072
3 net_95:2 0.2768
4 net_95:3 0.1679
5 inst_130:A2 0.2053
6 net_95:4 0.3806
7 net_95:5 0.4946
8 net_95:6 0.4608
9 net_95:7 0.4692
10 net_95:8 0.4766
11 inst_360:A2 0.0589
*RES
2 TAUGATE_28:Z net_95:1 0.2140
3 net_95:1 net_95:2 0.3306
4 net_95:2 net_95:3 0.1569
5 net_95:3 inst_130:A2 0.2580
6 net_95:2 net_95:4 0.0962
7 net_95:4 net_95:5 0.2415
8 net_95:5 net_95:6 0.1750
9 net_95:6 net_95:7 0.4103
10 net_95:7 net_95:8 0.0845
11 net_95:8 inst_360:A2 0.1888
*END

*D_NET net_17 1.2719
*CONN
*I TAUGATE_25:Z O
*I inst_100:A2 I
*CAP
1 TAUGATE_25:Z 0.1762
2 net_17:1 0.0806
3 net_17:2 0.0407
4 net_17:3 0.2069
5 net_17:4 0.0491
6 net_17:5 0.4137
7 inst_100:A2 0.3046
*RES
2 TAUGATE_25:Z net_17:1 0.2987
3 net_17:1 net_17:2 0.2640
4 net_17:2 net_17:3 0.1831
5 net_17:3 net_17:4 0.4110
6 net_17:4 net_17:5 0.0191
7 net_17:5 inst_100:A2 0.3538
*END

*D_NET net_518 2.4716
*CONN
*I TAUGATE_37:Z O
*I inst_208:A1 I
*I inst_24:A I
*CAP
1 TAUGATE_37:Z 0.3629
2 net_518:1 0.2007
3 inst_24:A 0.2971
4 net_518:2 0.2002
5 net_518:3 0.2573
6 net_518:4 0.3761
7 net_518:5 0.0616
8 net_518:6 0.4298
9 inst_208:A1 0.2857
*RES
2 TAUGATE_37:Z net_518:1 0.4025
3 net_518:1 inst_24:A 0.5010
4 net_518:1 net_518:2 0.2634
5 net_518:2 net_518:3 0.0470
6 net_518:3 net_518:4 0.0745
7 net_518:4 net_518:5 0.1738
8 net_518:5 net_518:6 0.4336
9 net_518:6 inst_208:A1 0.4556
*END

*D_NET TAUNET_51 1.0764
*CONN
*I inst_639:ZN O
*I TAUGATE_51:A I
*CAP
1 inst_639:ZN 0.0036
2 TAUNET_51:1 0.2737
3 TAUNET_51:2 0.3095
4 TAUGATE_51:A 0.4895
*RES
2 inst_639:ZN TAUNET_51:1 0.4033
3 TAUNET_51:1 TAUNET_51:2 0.2734
4 TAUNET_51:2 TAUGATE_51:A 0.3461
*END

*D_NET net_575 1.3424
*CONN
*I TAUGATE_23:Z O
*I inst_289:A2 I
*CAP
1 TAUGATE_23:Z 0.0418
2 net_575:1 0.3815
3 net_575:2 0.1458
4 net_575:3 0.4915
5 net_575:4 0.0683
6 inst_289:A2 0.2135
*RES
2 TAUGATE_23:Z net_575:1 0.4484
3 net_575:1 net_575:2 0.1379
4 net_575:2 net_575:3 0.1139
5 net_575:3 net_575:4 0.0489
6 net_575:4 inst_289:A2 0.0861
*END

*D_NET TAUNET_19 1.2401
*CONN
*I inst_345:ZN O
*I TAUGATE_19:A I
*CAP
1 inst_345:ZN 0.4806
2 TAUNET_19:1 0.1114
3 TAUNET_19:2 0.0198
4 TAUNET_19:3 0.2366
5 TAUNET_19:4 0.1100
6 TAUGATE_19:A 0.2818
*RES
2 inst_345:ZN TAUNET_19:1 0.3290
3 TAUNET_19:1 TAUNET_19:2 0.1592
4 TAUNET_19:2 TAUNET_19:3 0.4236
5 TAUNET_19:3 TAUNET_19:4 0.3328
6 TAUNET_19:4 TAUGATE_19:A 0.1906
*END

*D_NET TAUNET_34 1.5747
*CONN
*I inst_382:ZN O
*I TAUGATE_34:A I
*CAP
1 inst_382:ZN 0.4347
2 TAUNET_34:1 0.1394
3 TAUNET_34:2 0.0096
4 TAUNET_34:3 0.4963
5 TAUNET_34:4 0.2377
6 TAUGATE_34:A 0.2571
*RES
2 inst_382:ZN TAUNET_34:1 0.3610
3 TAUNET_34:1 TAUNET_34:2 0.0042
4 TAUNET_34:2 TAUNET_34:3 0.2690
5 TAUNET_34:3 TAUNET_34:4 0.3841
6 TAUNET_34:4 TAUGATE_34:A 0.3400
*END

*D_NET TAUNET_54 1.2277
*CONN
*I inst_227:ZN O
*I TAUGATE_54:A I
*CAP
1 inst_227:ZN 0.3112
2 TAUNET_54:1 0.4134
3 TAUNET_54:2 0.0741
4 TAUGATE_54:A 0.4290
*RES
2 inst_227:ZN TAUNET_54:1 0.4891
3 TAUNET_54:1 TAUNET_54:2 0.0621
4 TAUNET_54:2 TAUGATE_54:A 0.2122
*END

*D_NET TAUNET_44 0.7629
*CONN
*I inst_233:ZN O
*I TAUGATE_44:A I
*CAP
1 inst_233:ZN 0.1253
2 TAUNET_44:1 0.2343
3 TAUNET_44:2 0.1106
4 TAUNET_44:3 0.0283
5 TAUGATE_44:A 0.2644
*RES
2 inst_233:ZN TAUNET_44:1 0.3395
3 TAUNET_44:1 TAUNET_44:2 0.4160
4 TAUNET_44:2 TAUNET_44:3 0.1311
5 TAUNET_44:3 TAUGATE_44:A 0.1702
*END

*D_NET net_288 0.8144
*CONN
*I TAUGATE_20:Z O
*I inst_97:A1 I
*CAP
1 TAUGATE_20:Z 0.0383
2 net_288:1 0.2177
3 net_288:2 0.0520
4 net_288:3 0.1787
5 inst_97:A1 0.3277
*RES
2 TAUGATE_20:Z net_288:1 0.2308
3 net_288:1 net_288:2 0.1825
4 net_288:2 net_288:3 0.4154
5 net_288:3 inst_97:A1 0.4205
*END

*D_NET net_456 0.9305
*CONN
*I TAUGATE_22:Z O
*I inst_213:A3 I
*CAP
1 TAUGATE_22:Z 0.3303
2 net_456:1 0.3450
3 inst_213:A3 0.2552
*RES
2 TAUGATE_22:Z net_456:1 0.2397
3 net_456:1 inst_213:A3 0.3943
*END

*D_NET TAUNET_43 1.1705
*CONN
*I inst_510:ZN O
*I TAUGATE_43:A I
*CAP
1 inst_510:ZN 0.3586
2 TAUNET_43:1 0.2132
3 TAUNET_43:2 0.3448
4 TAUGATE_43:A 0.2539
*RES
2 inst_510:ZN TAUNET_43:1 0.0169
3 TAUNET_43:1 TAUNET_43:2 0.2910
4 TAUNET_43:2 TAUGATE_43:A 0.3418
*END

*D_NET TAUNET_56 1.0972
*CONN
*P n274 I
*I TAUGATE_56:A I
*CAP
1 n274 0.2232
2 TAUNET_56:1 0.3825
3 TAUGATE_56:A 0.4916
*RES
2 n274 TAUNET_56:1 0.0258
3 TAUNET_56:1 TAUGATE_56:A 0.0722
*END

*D_NET net_174 0.1761
*CONN
*I TAUGATE_11:Z O
*I inst_243:A3 I
*CAP
1 TAUGATE_11:Z 0.0274
2 net_174:1 0.0758
3 inst_243:A3 0.0730
*RES
2 TAUGATE_11:Z net_174:1 0.2996
3 net_174:1 inst_243:A3 0.1500
*END

*D_NET TAUNET_55 1.1459
*CONN
*I inst_442:ZN O
*I TAUGATE_55:A I
*CAP
1 inst_442:ZN 0.0605
2 TAUNET_55:1 0.4347
3 TAUNET_55:2 0.2976
4 TAUGATE_55:A 0.3531
*RES
2 inst_442:ZN TAUNET_55:1 0.0316
3 TAUNET_55:1 TAUNET_55:2 0.1823
4 TAUNET_55:2 TAUGATE_55:A 0.0755
*END

*D_NET net_328 1.1637
*CONN
*I TAUGATE_43:Z O
*I inst_256:A3 I
*CAP
1 TAUGATE_43:Z 0.3515
2 net_328:1 0.4269
3 net_328:2 0.0493
4 net_328:3 0.0341
5 inst_256:A3 0.3020
*RES
2 TAUGATE_43:Z net_328:1 0.3389
3 net_328:1 net_328:2 0.4000
4 net_328:2 net_328:3 0.0188
5 net_328:3 inst_256:A3 0.4709
*END

*D_NET TAUNET_11 0.8262
*CONN
*I inst_68:ZN O
*I TAUGATE_11:A I
*CAP
1 inst_68:ZN 0.0122
2 TAUNET_11:1 0.0936
3 TAUNET_11:2 0.3051
4 TAUNET_11:3 0.1197
5 TAUGATE_11:A 0.2956
*RES
2 inst_68:ZN TAUNET_11:1 0.2210
3 TAUNET_11:1 TAUNET_11:2 0.0970
4 TAUNET_11:2 TAUNET_11:3 0.2798
5 TAUNET_11:3 TAUGATE_11:A 0.3150
*END

*D_NET TAUNET_33 1.2664
*CONN
*I inst_424:ZN O
*I TAUGATE_33:A I
*CAP
1 inst_424:ZN 0.2108
2 TAUNET_33:1 0.0161
3 TAUNET_33:2 0.2047
4 TAUNET_33:3 0.3729
5 TAUNET_33:4 0.0610
6 TAUGATE_33:A 0.4010
*RES
2 inst_424:ZN TAUNET_33:1 0.2910
3 TAUNET_33:1 TAUNET_33:2 0.3768
4 TAUNET_33:2 TAUNET_33:3 0.3083
5 TAUNET_33:3 TAUNET_33:4 0.1250
6 TAUNET_33:4 TAUGATE_33:A 0.3526
*END

*D_NET TAUNET_22 1.6292
*CONN
*I inst_537:ZN O
*I TAUGATE_22:A I
*CAP
1 inst_537:ZN 0.3144
2 TAUNET_22:1 0.0820
3 TAUNET_22:2 0.2174
4 TAUNET_22:3 0.3638
5 TAUNET_22:4 0.4097
6 TAUGATE_22:A 0.2418
*RES
2 inst_537:ZN TAUNET_22:1 0.4080
3 TAUNET_22:1 TAUNET_22:2 0.3118
4 TAUNET_22:2 TAUNET_22:3 0.4981
5 TAUNET_22:3 TAUNET_22:4 0.3134
6 TAUNET_22:4 TAUGATE_22:A 0.4059
*END

*D_NET TAUNET_41 0.9494
*CONN
*I inst_573:ZN O
*I TAUGATE_41:A I
*CAP
1 inst_573:ZN 0.0910
2 TAUNET_41:1 0.3093
3 TAUNET_41:2 0.3342
4 TAUGATE_41:A 0.2150
*RES
2 inst_573:ZN TAUNET_41:1 0.0109
3 TAUNET_41:1 TAUNET_41:2 0.1830
4 TAUNET_41:2 TAUGATE_41:A 0.2298
*END

*D_NET TAUNET_30 0.1587
*CONN
*I inst_48:ZN O
*I TAUGATE_30:A I
*CAP
1 inst_48:ZN 0.0044
2 TAUNET_30:1 0.0476
3 TAUNET_30:2 0.0521
4 TAUGATE_30:A 0.0546
*RES
2 inst_48:ZN TAUNET_30:1 0.0043
3 TAUNET_30:1 TAUNET_30:2 0.2737
4 TAUNET_30:2 TAUGATE_30:A 0.4724
*END

*D_NET net_660 1.0994
*CONN
*I TAUGATE_32:Z O
*I inst_291:A1 I
*CAP
1 TAUGATE_32:Z 0.2426
2 net_660:1 0.2784
3 net_660:2 0.2008
4 inst_291:A1 0.3776
*RES
2 TAUGATE_32:Z net_660:1 0.2937
3 net_660:1 net_660:2 0.0093
4 net_660:2 inst_291:A1 0.2822
*END

*D_NET TAUNET_58 1.0927
*CONN
*I inst_644:ZN O
*I TAUGATE_58:A I
*CAP
1 inst_644:ZN 0.0309
2 TAUNET_58:1 0.3809
3 TAUNET_58:2 0.3567
4 TAUGATE_58:A 0.3242
*RES
2 inst_644:ZN TAUNET_58:1 0.2336
3 TAUNET_58:1 TAUNET_58:2 0.3863
4 TAUNET_58:2 TAUGATE_58:A 0.2365
*END

*D_NET TAUNET_5 1.1858
*CONN
*I TAUGATE_36:Z O
*I TAUGATE_5:A I
*CAP
1 TAUGATE_36:Z 0.3572
2 TAUNET_5:1 0.2185
3 TAUNET_5:2 0.2266
4 TAUNET_5:3 0.2538
5 TAUGATE_5:A 0.1297
*RES
2 TAUGATE_36:Z TAUNET_5:1 0.4791
3 TAUNET_5:1 TAUNET_5:2 0.2417
4 TAUNET_5:2 TAUNET_5:3 0.2444
5 TAUNET_5:3 TAUGATE_5:A 0.4262
*END

*D_NET net_180 1.0967
*CONN
*I TAUGATE_44:Z O
*I inst_511:A2 I
*CAP
1 TAUGATE_44:Z 0.3015
2 net_180:1 0.3035
3 net_180:2 0.4053
4 inst_511:A2 0.0863
*RES
2 TAUGATE_44:Z net_180:1 0.2362
3 net_180:1 net_180:2 0.1365
4 net_180:2 inst_511:A2 0.0277
*END

*D_NET net_512 0.8486
*CONN
*I TAUGATE_16:Z O
*I inst_212:A3 I
*CAP
1 TAUGATE_16:Z 0.2912
2 net_512:1 0.3711
3 net_512:2 0.0512
4 inst_212:A3 0.1351
*RES
2 TAUGATE_16:Z net_512:1 0.0984
3 net_512:1 net_512:2 0.0368
4 net_512:2 inst_212:A3 0.4376
*END

*D_NET net_395 2.5993
*CONN
*I TAUGATE_45:Z O
*I inst_648:A I
*I inst_528:A2 I
*CAP
1 TAUGATE_45:Z 0.1283
2 net_395:1 0.3234
3 net_395:2 0.4610
4 inst_648:A 0.4832
5 net_395:3 0.4556
6 net_395:4 0.1835
7 net_395:5 0.0020
8 net_395:6 0.2614
9 inst_528:A2 0.3010
*RES
2 TAUGATE_45:Z net_395:1 0.2776
3 net_395:1 net_395:2 0.3781
4 net_395:2 inst_648:A 0.3766
5 net_395:1 net_395:3 0.2164
6 net_395:3 net_395:4 0.4372
7 net_395:4 net_395:5 0.1158
8 net_395:5 net_395:6 0.1153
9 net_395:6 inst_528:A2 0.3810
*END

*D_NET net_662 1.4651
*CONN
*I TAUGATE_30:Z O
*I inst_50:B I
*CAP
1 TAUGATE_30:Z 0.1662
2 net_662:1 0.2541
3 net_662:2 0.2497
4 net_662:3 0.4625
5 net_662:4 0.2343
6 inst_50:B 0.0981
*RES
2 TAUGATE_30:Z net_662:1 0.3461
3 net_662:1 net_662:2 0.2382
4 net_662:2 net_662:3 0.4109
5 net_662:3 net_662:4 0.0945
6 net_662:4 inst_50:B 0.2326
*END

*D_NET TAUNET_52 0.7650
*CONN
*I inst_229:ZN O
*I TAUGATE_52:A I
*CAP
1 inst_229:ZN 0.2674
2 TAUNET_52:1 0.0414
3 TAUNET_52:2 0.2455
4 TAUNET_52:3 0.1970
5 TAUGATE_52:A 0.0138
*RES
2 inst_229:ZN TAUNET_52:1 0.4527
3 TAUNET_52:1 TAUNET_52:2 0.3131
4 TAUNET_52:2 TAUNET_52:3 0.4392
5 TAUNET_52:3 TAUGATE_52:A 0.4048
*END

*D_NET TAUNET_59 1.7566
*CONN
*I inst_690:ZN O
*I TAUGATE_59:A I
*CAP
1 inst_690:ZN 0.3283
2 TAUNET_59:1 0.4199
3 TAUNET_59:2 0.3736
4 TAUNET_59:3 0.3306
5 TAUGATE_59:A 0.3042
*RES
2 inst_690:ZN TAUNET_59:1 0.1317
3 TAUNET_59:1 TAUNET_59:2 0.1481
4 TAUNET_59:2 TAUNET_59:3 0.2485
5 TAUNET_59:3 TAUGATE_59:A 0.2201
*END

*D_NET net_79 12.1918
*CONN
*I TAUGATE_48:Z O
*I inst_345:A2 I
*I inst_340:A2 I
*I inst_338:A2 I
*I inst_339:A2 I
*I inst_342:A2 I
*I inst_341:A2 I
*I inst_344:A2 I
*I inst_124:A2 I
*I inst_343:A2 I
*CAP
1 TAUGATE_48:Z 0.3013
2 net_79:1 0.0262
3 inst_341:A2 0.3812
4 net_79:2 0.2523
5 net_79:3 0.0497
6 net_79:4 0.4938
7 net_79:5 0.3913
8 inst_340:A2 0.2131
9 net_79:6 0.2663
10 net_79:7 0.3641
11 net_79:8 0.1740
12 net_79:9 0.2701
13 net_79:10 0.3351
14 inst_338:A2 0.4105
15 net_79:11 0.0059
16 inst_339:A2 0.3552
17 net_79:12 0.4559
18 net_79:13 0.3575
19 net_79:14 0.1715
20 net_79:15 0.3050
21 inst_342:A2 0.3594
22 net_79:16 0.2908
23 net_79:17 0.3318
24 net_79:18 0.3308
25 inst_345:A2 0.4080
26 net_79:19 0.2033
27 net_79:20 0.3263
28 net_79:21 0.4574
29 net_79:22 0.4683
30 inst_344:A2 0.1543
31 net_79:23 0.1013
32 net_79:24 0.2457
33 net_79:25 0.4210
34 net_79:26 0.2594
35 net_79:27 0.3565
36 inst_124:A2 0.4074
37 net_79:28 0.1512
38 net_79:29 0.1368
39 net_79:30 0.4493
40 net_79:31 0.4663
41 inst_343:A2 0.2866
*RES
2 TAUGATE_48:Z net_79:1 0.0656
3 net_79:1 inst_341:A2 0.1550
4 net_79:1 net_79:2 0.3201
5 net_79:2 net_79:3 0.0320
6 net_79:3 net_79:4 0.2786
7 net_79:4 net_79:5 0.3378
8 net_79:5 inst_340:A2 0.4364
9 net_79:2 net_79:6 0.3004
10 net_79:6 net_79:7 0.3665
11 net_79:7 net_79:8 0.1341
12 net_79:8 net_79:9 0.0859
13 net_79:9 net_79:10 0.1706
14 net_79:10 inst_338:A2 0.3812
15 net_79:2 net_79:11 0.3839
16 net_79:11 inst_339:A2 0.1840
17 net_79:10 net_79:12 0.4902
18 net_79:12 net_79:13 0.4716
19 net_79:13 net_79:14 0.2112
20 net_79:14 net_79:15 0.1762
21 net_79:15 inst_342:A2 0.1166
22 net_79:5 net_79:16 0.4669
23 net_79:16 net_79:17 0.1932
24 net_79:17 net_79:18 0.0675
25 net_79:18 inst_345:A2 0.0053
26 net_79:17 net_79:19 0.4873
27 net_79:19 net_79:20 0.1669
28 net_79:20 net_79:21 0.4800
29 net_79:21 net_79:22 0.4518
30 net_79:22 inst_344:A2 0.0570
31 net_79:2 net_79:23 0.4309
32 net_79:23 net_79:24 0.4474
33 net_79:24 net_79:25 0.2931
34 net_79:25 net_79:26 0.2848
35 net_79:26 net_79:27 0.2246
36 net_79:27 inst_124:A2 0.3320
37 net_79:21 net_79:28 0.1873
38 net_79:28 net_79:29 0.1599
39 net_79:29 net_79:30 0.3589
40 net_79:30 net_79:31 0.4697
41 net_79:31 inst_343:A2 0.4844
*END

*D_NET n41 7.0913
*CONN
*I TAUGATE_46:Z O
*I inst_127:A1 I
*I inst_108:A1 I
*I inst_117:A2 I
*I inst_112:A2 I
*I inst_67:A1 I
*I inst_294:A2 I
*CAP
1 TAUGATE_46:Z 0.2861
2 n41:1 0.3075
3 n41:2 0.0604
4 inst_127:A1 0.3908
5 n41:3 0.3010
6 n41:4 0.1515
7 n41:5 0.0492
8 inst_108:A1 0.2707
9 n41:6 0.3648
10 n41:7 0.4404
11 n41:8 0.3187
12 n41:9 0.4272
13 n41:10 0.0224
14 inst_117:A2 0.4026
15 n41:11 0.4484
16 n41:12 0.0762
17 n41:13 0.1986
18 inst_112:A2 0.3922
19 n41:14 0.4880
20 n41:15 0.4169
21 n41:16 0.3167
22 n41:17 0.3376
23 inst_67:A1 0.1073
24 n41:18 0.1251
25 n41:19 0.0048
26 n41:20 0.3126
27 n41:21 0.0195
28 inst_294:A2 0.0541
*RES
2 TAUGATE_46:Z n41:1 0.2921
3 n41:1 n41:2 0.4162
4 n41:2 inst_127:A1 0.1285
5 n41:2 n41:3 0.0711
6 n41:3 n41:4 0.2365
7 n41:4 n41:5 0.0021
8 n41:5 inst_108:A1 0.2080
9 n41:4 n41:6 0.2784
10 n41:6 n41:7 0.1803
11 n41:7 n41:8 0.0882
12 n41:8 n41:9 0.2924
13 n41:9 n41:10 0.4780
14 n41:10 inst_117:A2 0.3510
15 n41:3 n41:11 0.3950
16 n41:11 n41:12 0.2666
17 n41:12 n41:13 0.4255
18 n41:13 inst_112:A2 0.4671
19 n41:8 n41:14 0.3579
20 n41:14 n41:15 0.1300
21 n41:15 n41:16 0.3795
22 n41:16 n41:17 0.2362
23 n41:17 inst_67:A1 0.1908
24 n41:7 n41:18 0.3700
25 n41:18 n41:19 0.3260
26 n41:19 n41:20 0.3466
27 n41:20 n41:21 0.4948
28 n41:21 inst_294:A2 0.4038
*END

*D_NET TAUNET_48 1.1917
*CONN
*I inst_116:ZN O
*I TAUGATE_48:A I
*CAP
1 inst_116:ZN 0.0063
2 TAUNET_48:1 0.0915
3 TAUNET_48:2 0.4619
4 TAUNET_48:3 0.1065
5 TAUNET_48:4 0.1990
6 TAUNET_48:5 0.2576
7 TAUGATE_48:A 0.0690
*RES
2 inst_116:ZN TAUNET_48:1 0.2231
3 TAUNET_48:1 TAUNET_48:2 0.2934
4 TAUNET_48:2 TAUNET_48:3 0.0661
5 TAUNET_48:3 TAUNET_48:4 0.0281
6 TAUNET_48:4 TAUNET_48:5 0.1011
7 TAUNET_48:5 TAUGATE_48:A 0.2539
*END

*D_NET TAUNET_42 1.8936
*CONN
*P n1698 I
*I TAUGATE_42:A I
*CAP
1 n1698 0.1980
2 TAUNET_42:1 0.1282
3 TAUNET_42:2 0.2766
4 TAUNET_42:3 0.4045
5 TAUNET_42:4 0.4267
6 TAUGATE_42:A 0.4596
*RES
2 n1698 TAUNET_42:1 0.3295
3 TAUNET_42:1 TAUNET_42:2 0.4724
4 TAUNET_42:2 TAUNET_42:3 0.4631
5 TAUNET_42:3 TAUNET_42:4 0.0407
6 TAUNET_42:4 TAUGATE_42:A 0.4130
*END

*D_NET net_492 0.9034
*CONN
*I TAUGATE_15:Z O
*I inst_559:A2 I
*CAP
1 TAUGATE_15:Z 0.0714
2 net_492:1 0.2588
3 net_492:2 0.0339
4 net_492:3 0.0519
5 inst_559:A2 0.4874
*RES
2 TAUGATE_15:Z net_492:1 0.0374
3 net_492:1 net_492:2 0.2489
4 net_492:2 net_492:3 0.2584
5 net_492:3 inst_559:A2 0.0346
*END

*D_NET n274 2.6745
*CONN
*I TAUGATE_56:Z O
*I inst_599:A I
*I inst_222:A2 I
*I inst_230:A2 I
*CAP
1 TAUGATE_56:Z 0.0645
2 n274:1 0.4099
3 n274:2 0.1540
4 n274:3 0.0325
5 n274:4 0.0924
6 inst_230:A2 0.1850
7 n274:5 0.2001
8 inst_222:A2 0.4220
9 n274:6 0.2042
10 n274:7 0.2030
11 n274:8 0.2656
12 inst_599:A 0.4413
*RES
2 TAUGATE_56:Z n274:1 0.1516
3 n274:1 n274:2 0.2746
4 n274:2 n274:3 0.4228
5 n274:3 n274:4 0.1417
6 n274:4 inst_230:A2 0.3754
7 n274:2 n274:5 0.4926
8 n274:5 inst_222:A2 0.0580
9 n274:5 n274:6 0.1336
10 n274:6 n274:7 0.4042
11 n274:7 n274:8 0.0451
12 n274:8 inst_599:A 0.2391
*END

*D_NET TAUNET_18 0.9045
*CONN
*I inst_336:ZN O
*I TAUGATE_18:A I
*CAP
1 inst_336:ZN 0.4146
2 TAUNET_18:1 0.2654
3 TAUGATE_18:A 0.2245
*RES
2 inst_336:ZN TAUNET_18:1 0.4797
3 TAUNET_18:1 TAUGATE_18:A 0.0551
*END

*D_NET TAUNET_45 1.5272
*CONN
*I inst_244:ZN O
*I TAUGATE_45:A I
*CAP
1 inst_244:ZN 0.0973
2 TAUNET_45:1 0.1903
3 TAUNET_45:2 0.2143
4 TAUNET_45:3 0.0701
5 TAUNET_45:4 0.2421
6 TAUNET_45:5 0.4634
7 TAUGATE_45:A 0.2497
*RES
2 inst_244:ZN TAUNET_45:1 0.2766
3 TAUNET_45:1 TAUNET_45:2 0.3086
4 TAUNET_45:2 TAUNET_45:3 0.2353
5 TAUNET_45:3 TAUNET_45:4 0.4838
6 TAUNET_45:4 TAUNET_45:5 0.0722
7 TAUNET_45:5 TAUGATE_45:A 0.3539
*END

*D_NET TAUNET_21 1.2346
*CONN
*I inst_167:ZN O
*I TAUGATE_21:A I
*CAP
1 inst_167:ZN 0.0192
2 TAUNET_21:1 0.4054
3 TAUNET_21:2 0.3681
4 TAUGATE_21:A 0.4419
*RES
2 inst_167:ZN TAUNET_21:1 0.1561
3 TAUNET_21:1 TAUNET_21:2 0.1347
4 TAUNET_21:2 TAUGATE_21:A 0.0224
*END

*D_NET n409 1.9103
*CONN
*I TAUGATE_38:Z O
*P n409 O
*CAP
1 TAUGATE_38:Z 0.2244
2 n409:1 0.1374
3 n409:2 0.1713
4 n409:3 0.2153
5 n409:4 0.3119
6 n409:5 0.4918
7 n409 0.3583
*RES
2 TAUGATE_38:Z n409:1 0.0251
3 n409:1 n409:2 0.0071
4 n409:2 n409:3 0.2242
5 n409:3 n409:4 0.4834
6 n409:4 n409:5 0.4589
7 n409:5 n409 0.0098
*END

*D_NET TAUNET_29 2.1429
*CONN
*I inst_598:ZN O
*I TAUGATE_29:A I
*CAP
1 inst_598:ZN 0.2846
2 TAUNET_29:1 0.1185
3 TAUNET_29:2 0.4585
4 TAUNET_29:3 0.3703
5 TAUNET_29:4 0.0365
6 TAUNET_29:5 0.4409
7 TAUGATE_29:A 0.4335
*RES
2 inst_598:ZN TAUNET_29:1 0.3158
3 TAUNET_29:1 TAUNET_29:2 0.2513
4 TAUNET_29:2 TAUNET_29:3 0.4798
5 TAUNET_29:3 TAUNET_29:4 0.1640
6 TAUNET_29:4 TAUNET_29:5 0.1778
7 TAUNET_29:5 TAUGATE_29:A 0.3155
*END

*D_NET net_424 1.3545
*CONN
*I TAUGATE_24:Z O
*I inst_78:A1 I
*CAP
1 TAUGATE_24:Z 0.2285
2 net_424:1 0.4514
3 net_424:2 0.1489
4 net_424:3 0.3442