*SPEF "IEEE 1481-1998"
*DESIGN "changes"
*DATE "Tue Dec 02 20:46:35 2014"
*VENDOR "TAU 2015 Contest"
*PROGRAM "Benchmark Parasitic Generator"
*VERSION "0.0"
*DESIGN_FLOW "NETLIST_TYPE_VERILOG"
*DIVIDER /
*DELIMITER :
*BUS_DELIMITER [ ]
*T_UNIT 1 PS
*C_UNIT 1 FF
*R_UNIT 1 KOHM
*L_UNIT 1 UH

*D_NET net_381 1.7439
*CONN
*I TAUGATE_7:Z O
*I inst_271:A1 I
*CAP
1 TAUGATE_7:Z 0.2611
2 net_381:1 0.4098
3 net_381:2 0.5009
4 net_381:3 0.2843
5 inst_271:A1 0.2878
*RES
2 TAUGATE_7:Z net_381:1 0.1659
3 net_381:1 net_381:2 0.2742
4 net_381:2 net_381:3 0.3494
5 net_381:3 inst_271:A1 0.1485
*END

*D_NET TAUNET_9 1.3760
*CONN
*I inst_675:ZN O
*I TAUGATE_9:A I
*CAP
1 inst_675:ZN 0.2110
2 TAUNET_9:1 0.3070
3 TAUNET_9:2 0.3583
4 TAUNET_9:3 0.1395
5 TAUNET_9:4 0.0646
6 TAUNET_9:5 0.0794
7 TAUGATE_9:A 0.2161
*RES
2 inst_675:ZN TAUNET_9:1 0.1614
3 TAUNET_9:1 TAUNET_9:2 0.3312
4 TAUNET_9:2 TAUNET_9:3 0.3755
5 TAUNET_9:3 TAUNET_9:4 0.4644
6 TAUNET_9:4 TAUNET_9:5 0.4559
7 TAUNET_9:5 TAUGATE_9:A 0.4050
*END

*D_NET TAUNET_5 0.4849
*CONN
*I inst_567:ZN O
*I TAUGATE_5:A I
*CAP
1 inst_567:ZN 0.1670
2 TAUNET_5:1 0.2440
3 TAUNET_5:2 0.0332
4 TAUGATE_5:A 0.0406
*RES
2 inst_567:ZN TAUNET_5:1 0.2732
3 TAUNET_5:1 TAUNET_5:2 0.0073
4 TAUNET_5:2 TAUGATE_5:A 0.1308
*END

*D_NET net_536 1.8161
*CONN
*I TAUGATE_5:Z O
*I inst_214:A4 I
*CAP
1 TAUGATE_5:Z 0.2909
2 net_536:1 0.0740
3 net_536:2 0.4871
4 net_536:3 0.4951
5 net_536:4 0.4125
6 inst_214:A4 0.0565
*RES
2 TAUGATE_5:Z net_536:1 0.1285
3 net_536:1 net_536:2 0.0292
4 net_536:2 net_536:3 0.2926
5 net_536:3 net_536:4 0.4507
6 net_536:4 inst_214:A4 0.3356
*END

*D_NET net_287 1.9602
*CONN
*I TAUGATE_8:Z O
*I inst_197:A4 I
*CAP
1 TAUGATE_8:Z 0.3845
2 net_287:1 0.3056
3 net_287:2 0.3464
4 net_287:3 0.0305
5 net_287:4 0.2383
6 net_287:5 0.4020
7 inst_197:A4 0.2529
*RES
2 TAUGATE_8:Z net_287:1 0.2665
3 net_287:1 net_287:2 0.4354
4 net_287:2 net_287:3 0.1977
5 net_287:3 net_287:4 0.0788
6 net_287:4 net_287:5 0.3276
7 net_287:5 inst_197:A4 0.3833
*END

*D_NET net_503 2.8321
*CONN
*I TAUGATE_9:Z O
*I inst_687:A2 I
*I inst_565:A1 I
*I inst_167:A1 I
*CAP
1 TAUGATE_9:Z 0.0716
2 net_503:1 0.1922
3 net_503:2 0.2805
4 net_503:3 0.1322
5 inst_565:A1 0.1905
6 net_503:4 0.2211
7 net_503:5 0.1955
8 net_503:6 0.1868
9 net_503:7 0.4889
10 inst_687:A2 0.0703
11 net_503:8 0.3990
12 inst_167:A1 0.4035
*RES
2 TAUGATE_9:Z net_503:1 0.4017
3 net_503:1 net_503:2 0.4680
4 net_503:2 net_503:3 0.2976
5 net_503:3 inst_565:A1 0.2331
6 net_503:2 net_503:4 0.3298
7 net_503:4 net_503:5 0.4131
8 net_503:5 net_503:6 0.3310
9 net_503:6 net_503:7 0.2621
10 net_503:7 inst_687:A2 0.4792
11 net_503:3 net_503:8 0.0219
12 net_503:8 inst_167:A1 0.0830
*END

*D_NET TAUNET_8 1.6212
*CONN
*I inst_486:ZN O
*I TAUGATE_8:A I
*CAP
1 inst_486:ZN 0.1250
2 TAUNET_8:1 0.4976
3 TAUNET_8:2 0.3591
4 TAUNET_8:3 0.2780
5 TAUNET_8:4 0.2022
6 TAUGATE_8:A 0.1593
*RES
2 inst_486:ZN TAUNET_8:1 0.4382
3 TAUNET_8:1 TAUNET_8:2 0.3498
4 TAUNET_8:2 TAUNET_8:3 0.4055
5 TAUNET_8:3 TAUNET_8:4 0.4519
6 TAUNET_8:4 TAUGATE_8:A 0.4658
*END

*D_NET n169 1.1222
*CONN
*I TAUGATE_6:Z O
*I inst_619:A I
*CAP
1 TAUGATE_6:Z 0.4019
2 n169:1 0.2503
3 inst_619:A 0.4700
*RES
2 TAUGATE_6:Z n169:1 0.3789
3 n169:1 inst_619:A 0.3545
*END

*D_NET TAUNET_6 1.0398
*CONN
*P n169 I
*I TAUGATE_6:A I
*CAP
1 n169 0.4316
2 TAUNET_6:1 0.4734
3 TAUNET_6:2 0.0376
4 TAUGATE_6:A 0.0972
*RES
2 n169 TAUNET_6:1 0.3594
3 TAUNET_6:1 TAUNET_6:2 0.0525
4 TAUNET_6:2 TAUGATE_6:A 0.3248
*END

*D_NET TAUNET_7 1.7532
*CONN
*I inst_517:ZN O
*I TAUGATE_7:A I
*CAP
1 inst_517:ZN 0.1267
2 TAUNET_7:1 0.2434
3 TAUNET_7:2 0.3726
4 TAUNET_7:3 0.2980
5 TAUNET_7:4 0.2454
6 TAUGATE_7:A 0.4670
*RES
2 inst_517:ZN TAUNET_7:1 0.1921
3 TAUNET_7:1 TAUNET_7:2 0.1376
4 TAUNET_7:2 TAUNET_7:3 0.4443
5 TAUNET_7:3 TAUNET_7:4 0.1288
6 TAUNET_7:4 TAUGATE_7:A 0.3022
*END

