*SPEF "IEEE 1481-1998"
*DESIGN "changes"
*DATE "Tue Dec 02 20:46:38 2014"
*VENDOR "TAU 2015 Contest"
*PROGRAM "Benchmark Parasitic Generator"
*VERSION "0.0"
*DESIGN_FLOW "NETLIST_TYPE_VERILOG"
*DIVIDER /
*DELIMITER :
*BUS_DELIMITER [ ]
*T_UNIT 1 PS
*C_UNIT 1 FF
*R_UNIT 1 KOHM
*L_UNIT 1 UH

*D_NET net_568 5.2605
*CONN
*I inst_570:ZN O
*I inst_274:A1 I
*I inst_174:A1 I
*I inst_173:A2 I
*I inst_28:A I
*CAP
1 inst_570:ZN 0.2611
2 net_568:1 0.4098
3 net_568:2 0.5009
4 net_568:3 0.2843
5 inst_174:A1 0.2878
6 net_568:4 0.4685
7 net_568:5 0.3070
8 net_568:6 0.3583
9 inst_274:A1 0.1395
10 net_568:7 0.4644
11 net_568:8 0.4559
12 net_568:9 0.4050
13 net_568:10 0.0154
14 inst_173:A2 0.1670
15 net_568:11 0.2909
16 net_568:12 0.3706
17 inst_28:A 0.0740
*RES
2 inst_570:ZN net_568:1 0.1659
3 net_568:1 net_568:2 0.2742
4 net_568:2 net_568:3 0.3494
5 net_568:3 inst_174:A1 0.1485
6 net_568:3 net_568:4 0.0646
7 net_568:4 net_568:5 0.0794
8 net_568:5 net_568:6 0.2161
9 net_568:6 inst_274:A1 0.1614
10 net_568:4 net_568:7 0.1555
11 net_568:7 net_568:8 0.2440
12 net_568:8 net_568:9 0.0332
13 net_568:9 net_568:10 0.0406
14 net_568:10 inst_173:A2 0.2732
15 net_568:3 net_568:11 0.4871
16 net_568:11 net_568:12 0.4951
17 net_568:12 inst_28:A 0.4125
*END

*D_NET net_176 0.8718
*CONN
*I TAUGATE_58:Z O
*I inst_485:A2 I
*CAP
1 TAUGATE_58:Z 0.1285
2 net_176:1 0.2926
3 inst_485:A2 0.4507
*RES
2 TAUGATE_58:Z net_176:1 0.3356
3 net_176:1 inst_485:A2 0.3995
*END

*D_NET net_215 1.7408
*CONN
*I inst_69:ZN O
*I inst_277:A2 I
*CAP
1 inst_69:ZN 0.4708
2 net_215:1 0.3464
3 net_215:2 0.0305
4 net_215:3 0.2383
5 net_215:4 0.4020
6 inst_277:A2 0.2529
*RES
2 inst_69:ZN net_215:1 0.2665
3 net_215:1 net_215:2 0.4354
4 net_215:2 net_215:3 0.1977
5 net_215:3 net_215:4 0.0788
6 net_215:4 inst_277:A2 0.3276
*END

*D_NET net_137 0.7450
*CONN
*I inst_224:ZN O
*I inst_498:A2 I
*CAP
1 inst_224:ZN 0.3292
2 net_137:1 0.2236
3 inst_498:A2 0.1922
*RES
2 inst_224:ZN net_137:1 0.2805
3 net_137:1 inst_498:A2 0.1322
*END

*D_NET net_296 18.5688
*CONN
*P n107 I
*I inst_506:A1 I
*I inst_147:A1 I
*I inst_368:A1 I
*I inst_153:A1 I
*I inst_318:A2 I
*I inst_525:A1 I
*I inst_338:A1 I
*I inst_417:A1 I
*I inst_313:A2 I
*I inst_114:A1 I
*I inst_292:A1 I
*I inst_418:A1 I
*I inst_419:A1 I
*I inst_12:B I
*I inst_384:A1 I
*CAP
1 n107 0.4017
2 net_296:1 0.2976
3 net_296:2 0.2331
4 net_296:3 0.2927
5 net_296:4 0.3943
6 net_296:5 0.2211
7 inst_525:A1 0.1955
8 net_296:6 0.1808
9 net_296:7 0.0717
10 net_296:8 0.3990
11 net_296:9 0.4035
12 net_296:10 0.0219
13 inst_147:A1 0.0830
14 net_296:11 0.4382
15 net_296:12 0.3498
16 inst_368:A1 0.4055
17 net_296:13 0.4700
18 net_296:14 0.3789
19 net_296:15 0.3545
20 inst_153:A1 0.1033
21 net_296:16 0.0525
22 net_296:17 0.3248
23 net_296:18 0.2597
24 net_296:19 0.1267
25 inst_318:A2 0.3840
26 net_296:20 0.4443
27 net_296:21 0.1288
28 inst_506:A1 0.3022
29 net_296:22 0.4814
30 net_296:23 0.1341
31 net_296:24 0.3915
32 net_296:25 0.0282
33 inst_338:A1 0.3089
34 net_296:26 0.3643
35 net_296:27 0.2288
36 net_296:28 0.0666
37 inst_417:A1 0.3854
38 net_296:29 0.2154
39 net_296:30 0.4921
40 net_296:31 0.1648
41 inst_313:A2 0.1855
42 net_296:32 0.1494
43 net_296:33 0.3290
44 net_296:34 0.1620
45 net_296:35 0.0029
46 net_296:36 0.2883
47 inst_114:A1 0.1903
48 net_296:37 0.4104
49 inst_292:A1 0.0649
50 net_296:38 0.1076
51 net_296:39 0.4606
52 net_296:40 0.3388
53 net_296:41 0.4657
54 net_296:42 0.3595
55 inst_418:A1 0.2471
56 net_296:43 0.3877
57 net_296:44 0.3882
58 net_296:45 0.4950
59 net_296:46 0.0413
60 net_296:47 0.4651
61 inst_419:A1 0.4065
62 net_296:48 0.2195
63 net_296:49 0.1533
64 net_296:50 0.4091
65 inst_12:B 0.2613
66 net_296:51 0.0283
67 net_296:52 0.2763
68 inst_384:A1 0.2945
*RES
2 n107 net_296:1 0.1868
3 net_296:1 net_296:2 0.4889
4 net_296:2 net_296:3 0.0703
5 net_296:3 net_296:4 0.3298
6 net_296:4 net_296:5 0.4131
7 net_296:5 inst_525:A1 0.3310
8 net_296:3 net_296:6 0.4539
9 net_296:6 net_296:7 0.1250
10 net_296:7 net_296:8 0.3196
11 net_296:8 net_296:9 0.4976
12 net_296:9 net_296:10 0.3591
13 net_296:10 inst_147:A1 0.2780
14 net_296:5 net_296:11 0.4519
15 net_296:11 net_296:12 0.4658
16 net_296:12 inst_368:A1 0.3690
17 net_296:1 net_296:13 0.4316
18 net_296:13 net_296:14 0.1782
19 net_296:14 net_296:15 0.4734
20 net_296:15 inst_153:A1 0.0376
21 net_296:3 net_296:16 0.2434
22 net_296:16 net_296:17 0.3726
23 net_296:17 net_296:18 0.2980
24 net_296:18 net_296:19 0.2454
25 net_296:19 inst_318:A2 0.4670
26 net_296:8 net_296:20 0.1405
27 net_296:20 net_296:21 0.0668
28 net_296:21 inst_506:A1 0.3699
29 net_296:19 net_296:22 0.0253
30 net_296:22 net_296:23 0.3105
31 net_296:23 net_296:24 0.1881
32 net_296:24 net_296:25 0.2034
33 net_296:25 inst_338:A1 0.1592
34 net_296:16 net_296:26 0.3580
35 net_296:26 net_296:27 0.3774
36 net_296:27 net_296:28 0.2731
37 net_296:28 inst_417:A1 0.1525
38 net_296:3 net_296:29 0.0112
39 net_296:29 net_296:30 0.3530
40 net_296:30 net_296:31 0.1128
41 net_296:31 inst_313:A2 0.2239
42 net_296:6 net_296:32 0.4381
43 net_296:32 net_296:33 0.3484
44 net_296:33 net_296:34 0.0801
45 net_296:34 net_296:35 0.1392
46 net_296:35 net_296:36 0.1891
47 net_296:36 inst_114:A1 0.0464
48 net_296:3 net_296:37 0.0510
49 net_296:37 inst_292:A1 0.1600
50 net_296:14 net_296:38 0.0832
51 net_296:38 net_296:39 0.0580
52 net_296:39 net_296:40 0.3736
53 net_296:40 net_296:41 0.0395
54 net_296:41 net_296:42 0.3644
55 net_296:42 inst_418:A1 0.0829
56 net_296:17 net_296:43 0.3164
57 net_296:43 net_296:44 0.3513
58 net_296:44 net_296:45 0.1165
59 net_296:45 net_296:46 0.0986
60 net_296:46 net_296:47 0.2243
61 net_296:47 inst_419:A1 0.1286
62 net_296:40 net_296:48 0.3587
63 net_296:48 net_296:49 0.1869
64 net_296:49 net_296:50 0.4974
65 net_296:50 inst_12:B 0.3047
66 net_296:18 net_296:51 0.3177
67 net_296:51 net_296:52 0.2101
68 net_296:52 inst_384:A1 0.3390
*END

*D_NET net_132 1.1506
*CONN
*I inst_375:ZN O
*I inst_234:A1 I
*CAP
1 inst_375:ZN 0.3404
2 net_132:1 0.3617
3 net_132:2 0.0856
4 inst_234:A1 0.3629
*RES
2 inst_375:ZN net_132:1 0.2821
3 net_132:1 net_132:2 0.3900
4 net_132:2 inst_234:A1 0.0557
*END

*D_NET net_237 1.5353
*CONN
*I inst_453:ZN O
*I inst_244:A1 I
*CAP
1 inst_453:ZN 0.2716
2 net_237:1 0.1079
3 net_237:2 0.3323
4 net_237:3 0.2907
5 net_237:4 0.0362
6 inst_244:A1 0.4966
*RES
2 inst_453:ZN net_237:1 0.4101
3 net_237:1 net_237:2 0.2702
4 net_237:2 net_237:3 0.2135
5 net_237:3 net_237:4 0.0419
6 net_237:4 inst_244:A1 0.2773
*END

*D_NET net_429 2.1160
*CONN
*I TAUGATE_57:Z O
*I inst_546:A2 I
*CAP
1 TAUGATE_57:Z 0.0485
2 net_429:1 0.4262
3 net_429:2 0.2009
4 net_429:3 0.3114
5 net_429:4 0.3090
6 net_429:5 0.3972
7 inst_546:A2 0.4228
*RES
2 TAUGATE_57:Z net_429:1 0.2443
3 net_429:1 net_429:2 0.2458
4 net_429:2 net_429:3 0.3734
5 net_429:3 net_429:4 0.1567
6 net_429:4 net_429:5 0.1247
7 net_429:5 inst_546:A2 0.2439
*END

*D_NET net_557 1.4807
*CONN
*I inst_4:Z O
*I inst_28:B I
*CAP
1 inst_4:Z 0.4474
2 net_557:1 0.0472
3 net_557:2 0.4436
4 net_557:3 0.1981
5 net_557:4 0.3275
6 inst_28:B 0.0169
*RES
2 inst_4:Z net_557:1 0.4026
3 net_557:1 net_557:2 0.4684
4 net_557:2 net_557:3 0.2490
5 net_557:3 net_557:4 0.0579
6 net_557:4 inst_28:B 0.0423
*END

*D_NET net_532 1.8957
*CONN
*I inst_81:ZN O
*I inst_213:A4 I
*CAP
1 inst_81:ZN 0.4278
2 net_532:1 0.4796
3 net_532:2 0.3740
4 net_532:3 0.1554
5 net_532:4 0.0209
6 inst_213:A4 0.4380
*RES
2 inst_81:ZN net_532:1 0.4130
3 net_532:1 net_532:2 0.4990
4 net_532:2 net_532:3 0.2134
5 net_532:3 net_532:4 0.1115
6 net_532:4 inst_213:A4 0.4947
*END

*D_NET net_98 2.2597
*CONN
*I inst_356:ZN O
*I inst_224:A1 I
*CAP
1 inst_356:ZN 0.2854
2 net_98:1 0.2438
3 net_98:2 0.2969
4 net_98:3 0.3091
5 net_98:4 0.5006
6 net_98:5 0.2264
7 inst_224:A1 0.3973
*RES
2 inst_356:ZN net_98:1 0.2044
3 net_98:1 net_98:2 0.1531
4 net_98:2 net_98:3 0.3886
5 net_98:3 net_98:4 0.2618
6 net_98:4 net_98:5 0.2468
7 net_98:5 inst_224:A1 0.4002
*END

*D_NET net_648 1.0943
*CONN
*I inst_42:ZN O
*I inst_595:A2 I
*I inst_287:A3 I
*CAP
1 inst_42:ZN 0.1857
2 net_648:1 0.0882
3 inst_287:A3 0.4386
4 net_648:2 0.0212
5 net_648:3 0.1417
6 inst_595:A2 0.2190
*RES
2 inst_42:ZN net_648:1 0.2715
3 net_648:1 inst_287:A3 0.0199
4 net_648:1 net_648:2 0.4826
5 net_648:2 net_648:3 0.1138
6 net_648:3 inst_595:A2 0.4033
*END

*D_NET net_119 0.6715
*CONN
*I inst_364:ZN O
*I inst_263:A2 I
*CAP
1 inst_364:ZN 0.2540
2 net_119:1 0.2388
3 inst_263:A2 0.1787
*RES
2 inst_364:ZN net_119:1 0.3603
3 net_119:1 inst_263:A2 0.0603
*END

*D_NET net_373 2.8249
*CONN
*I inst_230:ZN O
*I inst_244:A2 I
*I inst_250:A2 I
*I inst_247:A2 I
*CAP
1 inst_230:ZN 0.3102
2 net_373:1 0.2473
3 net_373:2 0.0055
4 inst_244:A2 0.4935
5 net_373:3 0.4583
6 net_373:4 0.3985
7 net_373:5 0.0145
8 inst_250:A2 0.0725
9 net_373:6 0.3420
10 net_373:7 0.0965
11 net_373:8 0.2555
12 inst_247:A2 0.1304
*RES
2 inst_230:ZN net_373:1 0.2412
3 net_373:1 net_373:2 0.3995
4 net_373:2 inst_244:A2 0.4441
5 net_373:1 net_373:3 0.4492
6 net_373:3 net_373:4 0.3124
7 net_373:4 net_373:5 0.3685
8 net_373:5 inst_250:A2 0.4317
9 net_373:2 net_373:6 0.3675
10 net_373:6 net_373:7 0.4634
11 net_373:7 net_373:8 0.2869
12 net_373:8 inst_247:A2 0.1646
*END

*D_NET net_356 1.3969
*CONN
*I inst_420:ZN O
*I inst_660:A4 I
*I inst_202:A4 I
*CAP
1 inst_420:ZN 0.0327
2 net_356:1 0.3721
3 inst_660:A4 0.4648
4 net_356:2 0.0264
5 net_356:3 0.2502
6 inst_202:A4 0.2506
*RES
2 inst_420:ZN net_356:1 0.2376
3 net_356:1 inst_660:A4 0.1146
4 net_356:1 net_356:2 0.4486
5 net_356:2 net_356:3 0.0641
6 net_356:3 inst_202:A4 0.0138
*END

*D_NET TAUNET_331 0.7959
*CONN
*I TAUGATE_227:Z O
*I TAUGATE_331:A I
*CAP
1 TAUGATE_227:Z 0.0204
2 TAUNET_331:1 0.1001
3 TAUNET_331:2 0.2747
4 TAUNET_331:3 0.1704
5 TAUGATE_331:A 0.2303
*RES
2 TAUGATE_227:Z TAUNET_331:1 0.0121
3 TAUNET_331:1 TAUNET_331:2 0.0620
4 TAUNET_331:2 TAUNET_331:3 0.0267
5 TAUNET_331:3 TAUGATE_331:A 0.1278
*END

*D_NET net_93 1.5058
*CONN
*I inst_353:ZN O
*I inst_227:A1 I
*CAP
1 inst_353:ZN 0.3621
2 net_93:1 0.3490
3 net_93:2 0.4751
4 inst_227:A1 0.3195
*RES
2 inst_353:ZN net_93:1 0.4748
3 net_93:1 net_93:2 0.2505
4 net_93:2 inst_227:A1 0.2036
*END

*D_NET net_452 1.2849
*CONN
*I inst_267:ZN O
*I inst_550:A1 I
*CAP
1 inst_267:ZN 0.0185
2 net_452:1 0.2437
3 net_452:2 0.3641
4 net_452:3 0.1411
5 net_452:4 0.2452
6 inst_550:A1 0.2723
*RES
2 inst_267:ZN net_452:1 0.2079
3 net_452:1 net_452:2 0.2449
4 net_452:2 net_452:3 0.0406
5 net_452:3 net_452:4 0.0917
6 net_452:4 inst_550:A1 0.0078
*END

*D_NET net_210 0.3723
*CONN
*I inst_431:ZN O
*I inst_265:A2 I
*CAP
1 inst_431:ZN 0.0264
2 net_210:1 0.1906
3 inst_265:A2 0.1553
*RES
2 inst_431:ZN net_210:1 0.0937
3 net_210:1 inst_265:A2 0.2944
*END

*D_NET net_578 4.6082
*CONN
*I inst_208:ZN O
*I inst_177:A1 I
*I inst_171:A2 I
*I inst_180:A1 I
*I inst_176:A1 I
*CAP
1 inst_208:ZN 0.0209
2 net_578:1 0.1067
3 net_578:2 0.4881
4 inst_176:A1 0.3672
5 net_578:3 0.2979
6 net_578:4 0.3428
7 net_578:5 0.2325
8 net_578:6 0.2733
9 net_578:7 0.1266
10 inst_171:A2 0.3814
11 net_578:8 0.4527
12 net_578:9 0.1465
13 inst_180:A1 0.1463
14 net_578:10 0.0715
15 net_578:11 0.1546
16 net_578:12 0.1861
17 net_578:13 0.4367
18 net_578:14 0.3452
19 inst_177:A1 0.0313
*RES
2 inst_208:ZN net_578:1 0.4629
3 net_578:1 net_578:2 0.1157
4 net_578:2 inst_176:A1 0.1901
5 net_578:1 net_578:3 0.1363
6 net_578:3 net_578:4 0.3277
7 net_578:4 net_578:5 0.3144
8 net_578:5 net_578:6 0.4503
9 net_578:6 net_578:7 0.3676
10 net_578:7 inst_171:A2 0.1603
11 net_578:7 net_578:8 0.4621
12 net_578:8 net_578:9 0.4065
13 net_578:9 inst_180:A1 0.0227
14 net_578:4 net_578:10 0.1217
15 net_578:10 net_578:11 0.0111
16 net_578:11 net_578:12 0.1222
17 net_578:12 net_578:13 0.0613
18 net_578:13 net_578:14 0.1692
19 net_578:14 inst_177:A1 0.4407
*END

*D_NET net_168 13.5938
*CONN
*I inst_131:ZN O
*I inst_383:A2 I
*I inst_378:A2 I
*I inst_380:A2 I
*I inst_379:A2 I
*I inst_389:A2 I
*I inst_403:A2 I
*I inst_399:A2 I
*I inst_381:A2 I
*I inst_382:A2 I
*I inst_384:A2 I
*I inst_404:A2 I
*I inst_388:A2 I
*CAP
1 inst_131:ZN 0.2563
2 net_168:1 0.2603
3 net_168:2 0.2874
4 net_168:3 0.3072
5 inst_388:A2 0.2768
6 net_168:4 0.2138
7 net_168:5 0.4796
8 net_168:6 0.3806
9 inst_378:A2 0.4946
10 net_168:7 0.1750
11 net_168:8 0.4103
12 net_168:9 0.0845
13 inst_380:A2 0.1888
14 net_168:10 0.0491
15 net_168:11 0.4137
16 net_168:12 0.3046
17 inst_379:A2 0.2987
18 net_168:13 0.3629
19 net_168:14 0.0787
20 net_168:15 0.2007
21 net_168:16 0.2971
22 net_168:17 0.4025
23 inst_389:A2 0.5010
24 net_168:18 0.3761
25 net_168:19 0.0616
26 net_168:20 0.4298
27 inst_403:A2 0.2857
28 net_168:21 0.1284
29 net_168:22 0.0036
30 net_168:23 0.1731
31 net_168:24 0.2737
32 net_168:25 0.3095
33 inst_399:A2 0.4895
34 net_168:26 0.4915
35 net_168:27 0.0683
36 inst_381:A2 0.2135
37 net_168:28 0.1477
38 inst_382:A2 0.4806
39 net_168:29 0.1100
40 net_168:30 0.2818
41 net_168:31 0.3290
42 inst_384:A2 0.1592
43 net_168:32 0.1394
44 net_168:33 0.0096
45 net_168:34 0.4963
46 net_168:35 0.2377
47 inst_404:A2 0.2571
48 net_168:36 0.4134
49 net_168:37 0.0741
50 inst_383:A2 0.4290
*RES
2 inst_131:ZN net_168:1 0.1679
3 net_168:1 net_168:2 0.2053
4 net_168:2 net_168:3 0.2140
5 net_168:3 inst_388:A2 0.3306
6 net_168:1 net_168:4 0.4608
7 net_168:4 net_168:5 0.4692
8 net_168:5 net_168:6 0.4766
9 net_168:6 inst_378:A2 0.0589
10 net_168:1 net_168:7 0.1436
11 net_168:7 net_168:8 0.1762
12 net_168:8 net_168:9 0.4748
13 net_168:9 inst_380:A2 0.0806
14 net_168:1 net_168:10 0.2640
15 net_168:10 net_168:11 0.1831
16 net_168:11 net_168:12 0.4110
17 net_168:12 inst_379:A2 0.0191
18 net_168:9 net_168:13 0.3538
19 net_168:13 net_168:14 0.4649
20 net_168:14 net_168:15 0.0482
21 net_168:15 net_168:16 0.1062
22 net_168:16 net_168:17 0.2963
23 net_168:17 inst_389:A2 0.4911
24 net_168:7 net_168:18 0.2634
25 net_168:18 net_168:19 0.0470
26 net_168:19 net_168:20 0.0745
27 net_168:20 inst_403:A2 0.1738
28 net_168:18 net_168:21 0.4033
29 net_168:21 net_168:22 0.2734
30 net_168:22 net_168:23 0.3461
31 net_168:23 net_168:24 0.3729
32 net_168:24 net_168:25 0.0418
33 net_168:25 inst_399:A2 0.3671
34 net_168:20 net_168:26 0.4484
35 net_168:26 net_168:27 0.1379
36 net_168:27 inst_381:A2 0.1139
37 net_168:3 net_168:28 0.3473
38 net_168:28 inst_382:A2 0.1114
39 net_168:1 net_168:29 0.4236
40 net_168:29 net_168:30 0.3328
41 net_168:30 net_168:31 0.1906
42 net_168:31 inst_384:A2 0.5003
43 net_168:28 net_168:32 0.3610
44 net_168:32 net_168:33 0.0042
45 net_168:33 net_168:34 0.2690
46 net_168:34 net_168:35 0.3841
47 net_168:35 inst_404:A2 0.3400
48 net_168:23 net_168:36 0.4891
49 net_168:36 net_168:37 0.0621
50 net_168:37 inst_383:A2 0.2122
*END

*D_NET net_284 0.7629
*CONN
*I inst_484:ZN O
*I inst_190:A1 I
*CAP
1 inst_484:ZN 0.1253
2 net_284:1 0.2343
3 net_284:2 0.1106
4 net_284:3 0.0283
5 inst_190:A1 0.2644
*RES
2 inst_484:ZN net_284:1 0.3395
3 net_284:1 net_284:2 0.4160
4 net_284:2 net_284:3 0.1311
5 net_284:3 inst_190:A1 0.1702
*END

*D_NET net_302 0.8144
*CONN
*I inst_70:ZN O
*I inst_253:A2 I
*CAP
1 inst_70:ZN 0.0383
2 net_302:1 0.2177
3 net_302:2 0.0520
4 net_302:3 0.1787
5 inst_253:A2 0.3277
*RES
2 inst_70:ZN net_302:1 0.2308
3 net_302:1 net_302:2 0.1825
4 net_302:2 net_302:3 0.4154
5 net_302:3 inst_253:A2 0.4205
*END

*D_NET net_569 0.9305
*CONN
*I inst_274:ZN O
*I inst_578:A2 I
*CAP
1 inst_274:ZN 0.3303
2 net_569:1 0.3450
3 inst_578:A2 0.2552
*RES
2 inst_274:ZN net_569:1 0.2397
3 net_569:1 inst_578:A2 0.3943
*END

*D_NET net_439 1.1705
*CONN
*I inst_608:Z O
*I inst_161:A2 I
*CAP
1 inst_608:Z 0.3586
2 net_439:1 0.2132
3 net_439:2 0.3448
4 inst_161:A2 0.2539
*RES
2 inst_608:Z net_439:1 0.0169
3 net_439:1 net_439:2 0.2910
4 net_439:2 inst_161:A2 0.3418
*END

*D_NET net_385 1.0972
*CONN
*I inst_520:ZN O
*I inst_262:A1 I
*CAP
1 inst_520:ZN 0.2232
2 net_385:1 0.3825
3 inst_262:A1 0.4916
*RES
2 inst_520:ZN net_385:1 0.0258
3 net_385:1 inst_262:A1 0.0722
*END

*D_NET net_259 0.1761
*CONN
*I inst_682:ZN O
*I inst_94:A3 I
*CAP
1 inst_682:ZN 0.0274
2 net_259:1 0.0758
3 inst_94:A3 0.0730
*RES
2 inst_682:ZN net_259:1 0.2996
3 net_259:1 inst_94:A3 0.1500
*END

*D_NET net_548 1.1459
*CONN
*I inst_573:ZN O
*I inst_216:A4 I
*CAP
1 inst_573:ZN 0.0605
2 net_548:1 0.4347
3 net_548:2 0.2976
4 inst_216:A4 0.3531
*RES
2 inst_573:ZN net_548:1 0.0316
3 net_548:1 net_548:2 0.1823
4 net_548:2 inst_216:A4 0.0755
*END

*D_NET net_327 1.1637
*CONN
*I inst_509:ZN O
*I inst_257:A3 I
*CAP
1 inst_509:ZN 0.3515
2 net_327:1 0.4269
3 net_327:2 0.0493
4 net_327:3 0.0341
5 inst_257:A3 0.3020
*RES
2 inst_509:ZN net_327:1 0.3389
3 net_327:1 net_327:2 0.4000
4 net_327:2 net_327:3 0.0188
5 net_327:3 inst_257:A3 0.4709
*END

*D_NET net_348 0.8262
*CONN
*I inst_190:ZN O
*I inst_58:A1 I
*CAP
1 inst_190:ZN 0.0122
2 net_348:1 0.0936
3 net_348:2 0.3051
4 net_348:3 0.1197
5 inst_58:A1 0.2956
*RES
2 inst_190:ZN net_348:1 0.2210
3 net_348:1 net_348:2 0.0970
4 net_348:2 net_348:3 0.2798
5 net_348:3 inst_58:A1 0.3150
*END

*D_NET net_76 2.7012
*CONN
*I inst_328:ZN O
*I inst_81:A1 I
*I inst_635:A I
*CAP
1 inst_328:ZN 0.2108
2 net_76:1 0.0161
3 net_76:2 0.2047
4 net_76:3 0.3729
5 net_76:4 0.0610
6 inst_81:A1 0.4010
7 net_76:5 0.3618
8 net_76:6 0.0820
9 net_76:7 0.2174
10 net_76:8 0.3638
11 inst_635:A 0.4097
*RES
2 inst_328:ZN net_76:1 0.2910
3 net_76:1 net_76:2 0.3768
4 net_76:2 net_76:3 0.3083
5 net_76:3 net_76:4 0.1250
6 net_76:4 inst_81:A1 0.3526
7 net_76:4 net_76:5 0.2418
8 net_76:5 net_76:6 0.4080
9 net_76:6 net_76:7 0.3118
10 net_76:7 net_76:8 0.4981
11 net_76:8 inst_635:A 0.3134
*END

*D_NET n128 1.9019
*CONN
*P n128 I
*I inst_397:A1 I
*I inst_464:A1 I
*I inst_483:A1 I
*CAP
1 n128 0.1396
2 n128:1 0.1278
3 inst_483:A1 0.3093
4 n128:2 0.0712
5 n128:3 0.0044
6 n128:4 0.1986
7 inst_464:A1 0.0476
8 n128:5 0.1466
9 n128:6 0.2784
10 n128:7 0.2008
11 inst_397:A1 0.3776
*RES
2 n128 n128:1 0.3342
3 n128:1 inst_483:A1 0.2150
4 n128:1 n128:2 0.0521
5 n128:2 n128:3 0.0546
6 n128:3 n128:4 0.0043
7 n128:4 inst_464:A1 0.2737
8 n128:2 n128:5 0.2937
9 n128:5 n128:6 0.0093
10 n128:6 n128:7 0.2822
11 n128:7 inst_397:A1 0.4311
*END

*D_NET net_101 2.6165
*CONN
*I inst_327:ZN O
*I inst_132:A2 I
*I inst_358:A2 I
*CAP
1 inst_327:ZN 0.1138
2 net_101:1 0.3567
3 net_101:2 0.3242
4 net_101:3 0.2336
5 net_101:4 0.3863
6 inst_132:A2 0.2365
7 net_101:5 0.4791
8 net_101:6 0.2417
9 inst_358:A2 0.2444
*RES
2 inst_327:ZN net_101:1 0.1037
3 net_101:1 net_101:2 0.3572
4 net_101:2 net_101:3 0.2211
5 net_101:3 net_101:4 0.2185
6 net_101:4 inst_132:A2 0.2266
7 net_101:3 net_101:5 0.4262
8 net_101:5 net_101:6 0.3737
9 net_101:6 inst_358:A2 0.3015
*END

*D_NET net_326 1.5079
*CONN
*I inst_508:ZN O
*I inst_252:A3 I
*CAP
1 inst_508:ZN 0.3035
2 net_326:1 0.0863
3 net_326:2 0.2362
4 net_326:3 0.1365
5 net_326:4 0.0277
6 net_326:5 0.4263
7 inst_252:A3 0.2912
*RES
2 inst_508:ZN net_326:1 0.1111
3 net_326:1 net_326:2 0.3711
4 net_326:2 net_326:3 0.0512
5 net_326:3 net_326:4 0.1351
6 net_326:4 net_326:5 0.0984
7 net_326:5 inst_252:A3 0.0368
*END

*D_NET net_353 1.0413
*CONN
*I inst_658:ZN O
*I inst_663:A4 I
*CAP
1 inst_658:ZN 0.1423
2 net_353:1 0.1146
3 net_353:2 0.3234
4 inst_663:A4 0.4610
*RES
2 inst_658:ZN net_353:1 0.4832
3 net_353:1 net_353:2 0.2776
4 net_353:2 inst_663:A4 0.3781
*END

*D_NET net_264 1.1921
*CONN
*I inst_477:ZN O
*I inst_194:A4 I
*CAP
1 inst_477:ZN 0.0185
2 net_264:1 0.1588
3 net_264:2 0.3738
4 net_264:3 0.4556
5 net_264:4 0.1835
6 inst_194:A4 0.0020
*RES
2 inst_477:ZN net_264:1 0.2614
3 net_264:1 net_264:2 0.3010
4 net_264:2 net_264:3 0.2164
5 net_264:3 net_264:4 0.4372
6 net_264:4 inst_194:A4 0.1158
*END

*D_NET net_589 1.1191
*CONN
*I inst_180:ZN O
*I inst_181:A2 I
*CAP
1 inst_180:ZN 0.3810
2 net_589:1 0.1662
3 net_589:2 0.3178
4 inst_181:A2 0.2541
*RES
2 inst_180:ZN net_589:1 0.2497
3 net_589:1 net_589:2 0.4625
4 net_589:2 inst_181:A2 0.2343
*END

*D_NET net_100 8.6714
*CONN
*I inst_125:ZN O
*I inst_485:A1 I
*I inst_370:A2 I
*I inst_367:A2 I
*I inst_368:A2 I
*I inst_369:A2 I
*I inst_363:A2 I
*I inst_364:A2 I
*I inst_365:A2 I
*I inst_366:A2 I
*CAP
1 inst_125:ZN 0.3461
2 net_100:1 0.4109
3 net_100:2 0.0945
4 net_100:3 0.2326
5 inst_370:A2 0.0121
6 net_100:4 0.4527
7 inst_485:A1 0.3131
8 net_100:5 0.3736
9 net_100:6 0.3306
10 net_100:7 0.3042
11 net_100:8 0.1317
12 net_100:9 0.1481
13 inst_367:A2 0.2485
14 net_100:10 0.0047
15 net_100:11 0.1418
16 inst_368:A2 0.2138
17 net_100:12 0.2786
18 inst_369:A2 0.3378
19 net_100:13 0.3641
20 net_100:14 0.1740
21 net_100:15 0.2701
22 inst_363:A2 0.3351
23 net_100:16 0.3812
24 net_100:17 0.0751
25 inst_364:A2 0.1227
26 net_100:18 0.4010
27 net_100:19 0.3573
28 inst_365:A2 0.4559
29 net_100:20 0.4716
30 net_100:21 0.2112
31 net_100:22 0.1762
32 net_100:23 0.1166
33 net_100:24 0.1660
34 inst_366:A2 0.2177
*RES
2 inst_125:ZN net_100:1 0.2674
3 net_100:1 net_100:2 0.2072
4 net_100:2 net_100:3 0.0414
5 net_100:3 inst_370:A2 0.2455
6 net_100:1 net_100:4 0.4392
7 net_100:4 inst_485:A1 0.4048
8 net_100:3 net_100:5 0.2201
9 net_100:5 net_100:6 0.2966
10 net_100:6 net_100:7 0.3013
11 net_100:7 net_100:8 0.0758
12 net_100:8 net_100:9 0.0262
13 net_100:9 inst_367:A2 0.3812
14 net_100:1 net_100:10 0.3805
15 net_100:10 net_100:11 0.2523
16 net_100:11 inst_368:A2 0.0497
17 net_100:8 net_100:12 0.4364
18 net_100:12 inst_369:A2 0.2454
19 net_100:12 net_100:13 0.4105
20 net_100:13 net_100:14 0.3004
21 net_100:14 net_100:15 0.3665
22 net_100:15 inst_363:A2 0.1341
23 net_100:3 net_100:16 0.0294
24 net_100:16 net_100:17 0.0059
25 net_100:17 inst_364:A2 0.3552
26 net_100:14 net_100:18 0.3575
27 net_100:18 net_100:19 0.1715
28 net_100:19 inst_365:A2 0.3050
29 net_100:15 net_100:20 0.2908
30 net_100:20 net_100:21 0.3318
31 net_100:21 net_100:22 0.3308
32 net_100:22 net_100:23 0.4080
33 net_100:23 net_100:24 0.4669
34 net_100:24 inst_366:A2 0.1932
*END

*D_NET net_85 0.8926
*CONN
*I inst_347:ZN O
*I inst_236:A3 I
*CAP
1 inst_347:ZN 0.0053
2 net_85:1 0.0437
3 net_85:2 0.4598
4 inst_236:A3 0.3838
*RES
2 inst_347:ZN net_85:1 0.2033
3 net_85:1 net_85:2 0.3263
4 net_85:2 inst_236:A3 0.4574
*END

*D_NET net_636 5.8227
*CONN
*I inst_36:ZN O
*I inst_183:A2 I
*I inst_88:A2 I
*I inst_184:A1 I
*I inst_594:A2 I
*CAP
1 inst_36:ZN 0.1543
2 net_636:1 0.1669
3 net_636:2 0.4800
4 net_636:3 0.4518
5 net_636:4 0.0570
6 net_636:5 0.4909
7 inst_594:A2 0.0572
8 net_636:6 0.4474
9 net_636:7 0.2931
10 net_636:8 0.2848
11 net_636:9 0.2246
12 net_636:10 0.3320
13 inst_88:A2 0.3870
14 net_636:11 0.3589
15 net_636:12 0.4697
16 inst_184:A1 0.4844
17 net_636:13 0.3908
18 inst_183:A2 0.2921
*RES
2 inst_36:ZN net_636:1 0.5008
3 net_636:1 net_636:2 0.1013
4 net_636:2 net_636:3 0.2457
5 net_636:3 net_636:4 0.4210
6 net_636:4 net_636:5 0.2594
7 net_636:5 inst_594:A2 0.3565
8 net_636:5 net_636:6 0.3663
9 net_636:6 net_636:7 0.1512
10 net_636:7 net_636:8 0.1368
11 net_636:8 net_636:9 0.4493
12 net_636:9 net_636:10 0.4663
13 net_636:10 inst_88:A2 0.2866
14 net_636:4 net_636:11 0.0401
15 net_636:11 net_636:12 0.2861
16 net_636:12 inst_184:A1 0.1883
17 net_636:8 net_636:13 0.4162
18 net_636:13 inst_183:A2 0.1285
*END

*D_NET net_252 1.1235
*CONN
*I inst_467:ZN O
*I inst_268:A2 I
*CAP
1 inst_467:ZN 0.3511
2 net_252:1 0.3010
3 net_252:2 0.1515
4 net_252:3 0.0492
5 inst_268:A2 0.2707
*RES
2 inst_467:ZN net_252:1 0.0711
3 net_252:1 net_252:2 0.2365
4 net_252:2 net_252:3 0.0021
5 net_252:3 inst_268:A2 0.2080
*END

*D_NET net_343 2.0999
*CONN
*I inst_668:ZN O
*I inst_204:A2 I
*CAP
1 inst_668:ZN 0.4886
2 net_343:1 0.4404
3 net_343:2 0.3187
4 net_343:3 0.4272
5 net_343:4 0.0224
6 inst_204:A2 0.4026
*RES
2 inst_668:ZN net_343:1 0.2784
3 net_343:1 net_343:2 0.1803
4 net_343:2 net_343:3 0.0882
5 net_343:3 net_343:4 0.2924
6 net_343:4 inst_204:A2 0.4780
*END

*D_NET net_536 1.0540
*CONN
*I TAUGATE_5:Z O
*I inst_214:A4 I
*CAP
1 TAUGATE_5:Z 0.1182
2 net_536:1 0.1530
3 net_536:2 0.2582
4 net_536:3 0.4484
5 inst_214:A4 0.0762
*RES
2 TAUGATE_5:Z net_536:1 0.1986
3 net_536:1 net_536:2 0.3922
4 net_536:2 net_536:3 0.3950
5 net_536:3 inst_214:A4 0.2666
*END

*D_NET net_455 4.8736
*CONN
*I inst_143:ZN O
*I inst_537:A1 I
*I inst_534:A1 I
*I inst_533:A1 I
*I inst_538:A1 I
*CAP
1 inst_143:ZN 0.4671
2 net_455:1 0.3936
3 net_455:2 0.4880
4 net_455:3 0.4169
5 inst_538:A1 0.3167
6 net_455:4 0.1908
7 net_455:5 0.1996
8 net_455:6 0.3123
9 inst_534:A1 0.1251
10 net_455:7 0.3466
11 net_455:8 0.4948
12 net_455:9 0.4038
13 net_455:10 0.1954
14 inst_533:A1 0.0063
15 net_455:11 0.2231
16 inst_537:A1 0.2934
*RES
2 inst_143:ZN net_455:1 0.3376
3 net_455:1 net_455:2 0.1073
4 net_455:2 net_455:3 0.3579
5 net_455:3 inst_538:A1 0.1300
6 net_455:3 net_455:4 0.0048
7 net_455:4 net_455:5 0.3126
8 net_455:5 net_455:6 0.0195
9 net_455:6 inst_534:A1 0.0541
10 net_455:5 net_455:7 0.4904
11 net_455:7 net_455:8 0.0915
12 net_455:8 net_455:9 0.4619
13 net_455:9 net_455:10 0.1065
14 net_455:10 inst_533:A1 0.1990
15 net_455:6 net_455:11 0.0661
16 net_455:11 inst_537:A1 0.0281
*END

*D_NET net_404 0.7745
*CONN
*I inst_529:ZN O
*I inst_670:A1 I
*CAP
1 inst_529:ZN 0.2539
2 net_404:1 0.1980
3 inst_670:A1 0.3226
*RES
2 inst_529:ZN net_404:1 0.1282
3 net_404:1 inst_670:A1 0.2766
*END

*D_NET net_160 2.4916
*CONN
*I inst_679:ZN O
*I inst_103:A2 I
*CAP
1 inst_679:ZN 0.4267
2 net_160:1 0.3295
3 net_160:2 0.4724
4 net_160:3 0.4631
5 net_160:4 0.0407
6 net_160:5 0.4130
7 inst_103:A2 0.3462
*RES
2 inst_679:ZN net_160:1 0.0714
3 net_160:1 net_160:2 0.2110
4 net_160:2 net_160:3 0.2588
5 net_160:3 net_160:4 0.0339
6 net_160:4 net_160:5 0.0519
7 net_160:5 inst_103:A2 0.4874
*END

*D_NET net_240 1.1229
*CONN
*I inst_681:ZN O
*I inst_95:A3 I
*CAP
1 inst_681:ZN 0.2489
2 net_240:1 0.0346
3 net_240:2 0.4333
4 net_240:3 0.0645
5 inst_95:A3 0.3416
*RES
2 inst_681:ZN net_240:1 0.4099
3 net_240:1 net_240:2 0.1540
4 net_240:2 net_240:3 0.0325
5 net_240:3 inst_95:A3 0.0924
*END

*D_NET net_322 1.2932
*CONN
*I inst_505:ZN O
*I inst_254:A1 I
*CAP
1 inst_505:ZN 0.1516
2 net_322:1 0.4228
3 net_322:2 0.1417
4 net_322:3 0.3754
5 inst_254:A1 0.2016
*RES
2 inst_505:ZN net_322:1 0.0068
3 net_322:1 net_322:2 0.2001
4 net_322:2 net_322:3 0.4220
5 net_322:3 inst_254:A1 0.4926
*END

*D_NET n378 5.3072
*CONN
*I inst_289:ZN O
*P n378 O
*I inst_52:A2 I
*I inst_597:A2 I
*I inst_61:A1 I
*I inst_46:B I
*CAP
1 inst_289:ZN 0.3810
2 n378:1 0.2042
3 n378:2 0.2030
4 n378:3 0.2656
5 n378 0.4413
6 n378:4 0.4797
7 n378:5 0.0551
8 n378:6 0.1877
9 inst_52:A2 0.0973
10 n378:7 0.4838
11 n378:8 0.0722
12 n378:9 0.3539
13 inst_597:A2 0.3446
14 n378:10 0.1347
15 n378:11 0.0224
16 inst_61:A1 0.3933
17 n378:12 0.3119
18 n378:13 0.4918
19 n378:14 0.3583
20 inst_46:B 0.0251
*RES
2 inst_289:ZN n378:1 0.1336
3 n378:1 n378:2 0.4042
4 n378:2 n378:3 0.0451
5 n378:3 n378 0.2391
6 n378:2 n378:4 0.4235
7 n378:4 n378:5 0.1903
8 n378:5 n378:6 0.2143
9 n378:6 inst_52:A2 0.0701
10 n378:4 n378:7 0.0192
11 n378:7 n378:8 0.1341
12 n378:8 n378:9 0.4054
13 n378:9 inst_597:A2 0.3681
14 n378:9 n378:10 0.2244
15 n378:10 n378:11 0.4154
16 n378:11 inst_61:A1 0.1374
17 n378:4 n378:12 0.0071
18 n378:12 n378:13 0.2242
19 n378:13 n378:14 0.4834
20 n378:14 inst_46:B 0.4589
*END

*D_NET net_393 1.7458
*CONN
*I inst_251:ZN O
*I inst_534:A2 I
*CAP
1 inst_251:ZN 0.3264
2 net_393:1 0.4721
3 net_393:2 0.1185
4 net_393:3 0.4585
5 inst_534:A2 0.3703
*RES
2 inst_251:ZN net_393:1 0.0365
3 net_393:1 net_393:2 0.4409
4 net_393:2 net_393:3 0.4335
5 net_393:3 inst_534:A2 0.3158
*END

*D_NET net_4 8.0851
*CONN
*P n330 I
*I inst_85:A1 I
*I inst_579:A1 I
*I inst_83:A1 I
*I inst_275:A2 I
*I inst_570:A1 I
*I inst_582:A1 I
*CAP
1 n330 0.4798
2 net_4:1 0.1778
3 net_4:2 0.3155
4 inst_275:A2 0.4909
5 net_4:3 0.1815
6 net_4:4 0.2112
7 net_4:5 0.3238
8 net_4:6 0.1536
9 inst_579:A1 0.2744
10 net_4:7 0.4392
11 net_4:8 0.4660
12 net_4:9 0.3296
13 net_4:10 0.2711
14 net_4:11 0.1177
15 inst_83:A1 0.1130
16 net_4:12 0.2000
17 net_4:13 0.4330
18 net_4:14 0.3792
19 net_4:15 0.3945
20 net_4:16 0.1168
21 inst_85:A1 0.0632
22 net_4:17 0.4466
23 net_4:18 0.0789
24 net_4:19 0.1418
25 inst_570:A1 0.2162
26 net_4:20 0.2326
27 net_4:21 0.3632
28 net_4:22 0.2277
29 net_4:23 0.1399
30 inst_582:A1 0.3067
*RES
2 n330 net_4:1 0.2285
3 net_4:1 net_4:2 0.2293
4 net_4:2 inst_275:A2 0.4514
5 net_4:1 net_4:3 0.3973
6 net_4:3 net_4:4 0.0682
7 net_4:4 net_4:5 0.0813
8 net_4:5 net_4:6 0.2235
9 net_4:6 inst_579:A1 0.0018
10 net_4:3 net_4:7 0.0719
11 net_4:7 net_4:8 0.2913
12 net_4:8 net_4:9 0.3837
13 net_4:9 net_4:10 0.4308
14 net_4:10 net_4:11 0.4593
15 net_4:11 inst_83:A1 0.4578
16 net_4:3 net_4:12 0.3389
17 net_4:12 net_4:13 0.2267
18 net_4:13 net_4:14 0.0022
19 net_4:14 net_4:15 0.3986
20 net_4:15 net_4:16 0.0342
21 net_4:16 inst_85:A1 0.1492
22 net_4:4 net_4:17 0.3480
23 net_4:17 net_4:18 0.3423
24 net_4:18 net_4:19 0.3091
25 net_4:19 inst_570:A1 0.3077
26 net_4:1 net_4:20 0.2194
27 net_4:20 net_4:21 0.0694
28 net_4:21 net_4:22 0.1731
29 net_4:22 net_4:23 0.0340
30 net_4:23 inst_582:A1 0.1910
*END

*D_NET net_319 4.2717
*CONN
*I inst_331:ZN O
*I inst_140:A1 I
*I inst_54:A1 I
*I inst_285:A2 I
*I inst_667:A2 I
*CAP
1 inst_331:ZN 0.1519
2 net_319:1 0.0326
3 net_319:2 0.2788
4 net_319:3 0.2469
5 net_319:4 0.0975
6 net_319:5 0.1398
7 inst_140:A1 0.3850
8 net_319:6 0.3040
9 net_319:7 0.3068
10 net_319:8 0.1313
11 net_319:9 0.0490
12 inst_54:A1 0.1490
13 net_319:10 0.4065
14 net_319:11 0.3838
15 net_319:12 0.2328
16 net_319:13 0.0616
17 inst_285:A2 0.3670
18 net_319:14 0.0552
19 net_319:15 0.1904
20 net_319:16 0.2527
21 inst_667:A2 0.0491
*RES
2 inst_331:ZN net_319:1 0.2235
3 net_319:1 net_319:2 0.2530
4 net_319:2 net_319:3 0.0538
5 net_319:3 net_319:4 0.1085
6 net_319:4 net_319:5 0.3839
7 net_319:5 inst_140:A1 0.0178
8 net_319:2 net_319:6 0.4082
9 net_319:6 net_319:7 0.0586
10 net_319:7 net_319:8 0.2553
11 net_319:8 net_319:9 0.4766
12 net_319:9 inst_54:A1 0.4662
13 net_319:2 net_319:10 0.3852
14 net_319:10 net_319:11 0.1467
15 net_319:11 net_319:12 0.2409
16 net_319:12 net_319:13 0.4071
17 net_319:13 inst_285:A2 0.2078
18 net_319:3 net_319:14 0.0298
19 net_319:14 net_319:15 0.3266
20 net_319:15 net_319:16 0.3430
21 net_319:16 inst_667:A2 0.0062
*END

*D_NET net_17 1.1883
*CONN
*I TAUGATE_25:Z O
*I inst_100:A2 I
*CAP
1 TAUGATE_25:Z 0.1542
2 net_17:1 0.2415
3 net_17:2 0.4946
4 inst_100:A2 0.2980