*SPEF "IEEE 1481-1998"
*DESIGN "changes"
*DATE "Tue Dec 02 20:46:37 2014"
*VENDOR "TAU 2015 Contest"
*PROGRAM "Benchmark Parasitic Generator"
*VERSION "0.0"
*DESIGN_FLOW "NETLIST_TYPE_VERILOG"
*DIVIDER /
*DELIMITER :
*BUS_DELIMITER [ ]
*T_UNIT 1 PS
*C_UNIT 1 FF
*R_UNIT 1 KOHM
*L_UNIT 1 UH

*D_NET net_363 11.7008
*CONN
*I inst_612:ZN O
*I inst_191:A2 I
*I inst_190:A2 I
*I inst_116:A1 I
*I inst_662:A2 I
*I inst_119:A2 I
*I inst_117:A1 I
*I inst_194:A2 I
*I inst_661:A2 I
*I inst_136:A1 I
*I inst_120:A1 I
*CAP
1 inst_612:ZN 0.2611
2 net_363:1 0.4098
3 net_363:2 0.5009
4 net_363:3 0.2843
5 inst_662:A2 0.2878
6 net_363:4 0.4685
7 net_363:5 0.3070
8 net_363:6 0.3583
9 inst_190:A2 0.1395
10 net_363:7 0.4644
11 net_363:8 0.4559
12 net_363:9 0.4050
13 net_363:10 0.0154
14 inst_116:A1 0.1670
15 net_363:11 0.2909
16 net_363:12 0.3706
17 inst_191:A2 0.0740
18 net_363:13 0.0292
19 net_363:14 0.2926
20 inst_119:A2 0.4507
21 net_363:15 0.3464
22 net_363:16 0.0305
23 net_363:17 0.2383
24 net_363:18 0.4020
25 inst_117:A1 0.2529
26 net_363:19 0.1922
27 net_363:20 0.2805
28 net_363:21 0.1322
29 inst_194:A2 0.1905
30 net_363:22 0.1955
31 net_363:23 0.1868
32 net_363:24 0.4889
33 inst_661:A2 0.0703
34 net_363:25 0.0717
35 net_363:26 0.3990
36 inst_136:A1 0.4035
37 net_363:27 0.3591
38 net_363:28 0.2780
39 net_363:29 0.2022
40 net_363:30 0.1593
41 net_363:31 0.4382
42 inst_120:A1 0.3498
*RES
2 inst_612:ZN net_363:1 0.1659
3 net_363:1 net_363:2 0.2742
4 net_363:2 net_363:3 0.3494
5 net_363:3 inst_662:A2 0.1485
6 net_363:3 net_363:4 0.0646
7 net_363:4 net_363:5 0.0794
8 net_363:5 net_363:6 0.2161
9 net_363:6 inst_190:A2 0.1614
10 net_363:4 net_363:7 0.1555
11 net_363:7 net_363:8 0.2440
12 net_363:8 net_363:9 0.0332
13 net_363:9 net_363:10 0.0406
14 net_363:10 inst_116:A1 0.2732
15 net_363:3 net_363:11 0.4871
16 net_363:11 net_363:12 0.4951
17 net_363:12 inst_191:A2 0.4125
18 net_363:1 net_363:13 0.3356
19 net_363:13 net_363:14 0.3995
20 net_363:14 inst_119:A2 0.3845
21 net_363:14 net_363:15 0.2665
22 net_363:15 net_363:16 0.4354
23 net_363:16 net_363:17 0.1977
24 net_363:17 net_363:18 0.0788
25 net_363:18 inst_117:A1 0.3276
26 net_363:3 net_363:19 0.4017
27 net_363:19 net_363:20 0.4680
28 net_363:20 net_363:21 0.2976
29 net_363:21 inst_194:A2 0.2331
30 net_363:17 net_363:22 0.3298
31 net_363:22 net_363:23 0.4131
32 net_363:23 net_363:24 0.3310
33 net_363:24 inst_661:A2 0.2621
34 net_363:24 net_363:25 0.0219
35 net_363:25 net_363:26 0.0830
36 net_363:26 inst_136:A1 0.4539
37 net_363:17 net_363:27 0.4055
38 net_363:27 net_363:28 0.4519
39 net_363:28 net_363:29 0.4658
40 net_363:29 net_363:30 0.3690
41 net_363:30 net_363:31 0.4019
42 net_363:31 inst_120:A1 0.0632
*END

*D_NET net_548 2.0111
*CONN
*I TAUGATE_41:Z O
*I inst_216:A4 I
*CAP
1 TAUGATE_41:Z 0.4700
2 net_548:1 0.3545
3 net_548:2 0.1033
4 net_548:3 0.4316
5 net_548:4 0.1782
6 inst_216:A4 0.4734
*RES
2 TAUGATE_41:Z net_548:1 0.0376
3 net_548:1 net_548:2 0.0972
4 net_548:2 net_548:3 0.3594
5 net_548:3 net_548:4 0.0525
6 net_548:4 inst_216:A4 0.3248
*END

*D_NET net_43 1.7532
*CONN
*I inst_321:ZN O
*I inst_232:A2 I
*CAP
1 inst_321:ZN 0.1267
2 net_43:1 0.2434
3 net_43:2 0.3726
4 net_43:3 0.2980
5 net_43:4 0.2454
6 inst_232:A2 0.4670
*RES
2 inst_321:ZN net_43:1 0.1921
3 net_43:1 net_43:2 0.1376
4 net_43:2 net_43:3 0.4443
5 net_43:3 net_43:4 0.1288
6 net_43:4 inst_232:A2 0.3022
*END

*D_NET n402 1.8873
*CONN
*I inst_50:ZN O
*P n402 O
*CAP
1 inst_50:ZN 0.0668
2 n402:1 0.4131
3 n402:2 0.4004
4 n402:3 0.4814
5 n402:4 0.1341
6 n402 0.3915
*RES
2 inst_50:ZN n402:1 0.0282
3 n402:1 n402:2 0.3089
4 n402:2 n402:3 0.0253
5 n402:3 n402:4 0.3105
6 n402:4 n402 0.1881
*END

*D_NET net_607 1.4805
*CONN
*I inst_33:ZN O
*I inst_35:A I
*CAP
1 inst_33:ZN 0.1592
2 net_607:1 0.2761
3 net_607:2 0.3643
4 net_607:3 0.2288
5 net_607:4 0.0666
6 inst_35:A 0.3854
*RES
2 inst_33:ZN net_607:1 0.3580
3 net_607:1 net_607:2 0.3774
4 net_607:2 net_607:3 0.2731
5 net_607:3 net_607:4 0.1525
6 net_607:4 inst_35:A 0.0518
*END

