*SPEF "IEEE 1481-1998"
*DESIGN "changes"
*DATE "Tue Dec 02 20:02:40 2014"
*VENDOR "TAU 2015 Contest"
*PROGRAM "Benchmark Parasitic Generator"
*VERSION "0.0"
*DESIGN_FLOW "NETLIST_TYPE_VERILOG"
*DIVIDER /
*DELIMITER :
*BUS_DELIMITER [ ]
*T_UNIT 1 PS
*C_UNIT 1 FF
*R_UNIT 1 KOHM
*L_UNIT 1 UH

*D_NET net_47 4.5250
*CONN
*I TAUGATE_195:Z O
*I inst_17:A2 I
*I inst_9:A2 I
*I inst_45:A2 I
*CAP
1 TAUGATE_195:Z 0.2611
2 net_47:1 0.4098
3 net_47:2 0.5009
4 net_47:3 0.2843
5 inst_9:A2 0.2878
6 net_47:4 0.4685
7 net_47:5 0.3070
8 net_47:6 0.3583
9 inst_17:A2 0.1395
10 net_47:7 0.4644
11 net_47:8 0.4559
12 net_47:9 0.4050
13 net_47:10 0.0154
14 inst_45:A2 0.1670
*RES
2 TAUGATE_195:Z net_47:1 0.1659
3 net_47:1 net_47:2 0.2742
4 net_47:2 net_47:3 0.3494
5 net_47:3 inst_9:A2 0.1485
6 net_47:3 net_47:4 0.0646
7 net_47:4 net_47:5 0.0794
8 net_47:5 net_47:6 0.2161
9 net_47:6 inst_17:A2 0.1614
10 net_47:4 net_47:7 0.1555
11 net_47:7 net_47:8 0.2440
12 net_47:8 net_47:9 0.0332
13 net_47:9 net_47:10 0.0406
14 net_47:10 inst_45:A2 0.2732
*END

*D_NET TAUNET_114 0.8663
*CONN
*I inst_105:ZN O
*I TAUGATE_114:A I
*CAP
1 inst_105:ZN 0.1308
2 TAUNET_114:1 0.2909
3 TAUNET_114:2 0.3706
4 TAUGATE_114:A 0.0740
*RES
2 inst_105:ZN TAUNET_114:1 0.4871
3 TAUNET_114:1 TAUNET_114:2 0.4951
4 TAUNET_114:2 TAUGATE_114:A 0.4125
*END

*D_NET net_54 0.8718
*CONN
*I TAUGATE_78:Z O
*I inst_63:A1 I
*CAP
1 TAUGATE_78:Z 0.1285
2 net_54:1 0.2926
3 inst_63:A1 0.4507
*RES
2 TAUGATE_78:Z net_54:1 0.3356
3 net_54:1 inst_63:A1 0.3995
*END

*D_NET net_105 1.7408
*CONN
*I TAUGATE_115:Z O
*I inst_21:A1 I
*CAP
1 TAUGATE_115:Z 0.4708
2 net_105:1 0.3464
3 net_105:2 0.0305
4 net_105:3 0.2383
5 net_105:4 0.4020
6 inst_21:A1 0.2529
*RES
2 TAUGATE_115:Z net_105:1 0.2665
3 net_105:1 net_105:2 0.4354
4 net_105:2 net_105:3 0.1977
5 net_105:3 net_105:4 0.0788
6 net_105:4 inst_21:A1 0.3276
*END

*D_NET P3 0.7450
*CONN
*I TAUGATE_135:Z O
*P P3 O
*CAP
1 TAUGATE_135:Z 0.3292
2 P3:1 0.2236
3 P3 0.1922
*RES
2 TAUGATE_135:Z P3:1 0.2805
3 P3:1 P3 0.1322
*END

*D_NET TAUNET_232 2.0360
*CONN
*I inst_74:ZN O
*I TAUGATE_232:A I
*CAP
1 inst_74:ZN 0.4017
2 TAUNET_232:1 0.2976
3 TAUNET_232:2 0.2331
4 TAUNET_232:3 0.2927
5 TAUNET_232:4 0.3943
6 TAUNET_232:5 0.2211
7 TAUGATE_232:A 0.1955
*RES
2 inst_74:ZN TAUNET_232:1 0.1868
3 TAUNET_232:1 TAUNET_232:2 0.4889
4 TAUNET_232:2 TAUNET_232:3 0.0703
5 TAUNET_232:3 TAUNET_232:4 0.3298
6 TAUNET_232:4 TAUNET_232:5 0.4131
7 TAUNET_232:5 TAUGATE_232:A 0.3310
*END

*D_NET TAUNET_77 1.3534
*CONN
*I inst_81:ZN O
*I TAUGATE_77:A I
*CAP
1 inst_81:ZN 0.4792
2 TAUNET_77:1 0.0717
3 TAUNET_77:2 0.3990
4 TAUGATE_77:A 0.4035
*RES
2 inst_81:ZN TAUNET_77:1 0.0219
3 TAUNET_77:1 TAUNET_77:2 0.0830
4 TAUNET_77:2 TAUGATE_77:A 0.4539
*END

*D_NET net_98 2.1062
*CONN
*I TAUGATE_217:Z O
*I inst_29:A1 I
*CAP
1 TAUGATE_217:Z 0.3196
2 net_98:1 0.3591
3 net_98:2 0.2780
4 net_98:3 0.2022
5 net_98:4 0.1593
6 net_98:5 0.4382
7 inst_29:A1 0.3498
*RES
2 TAUGATE_217:Z net_98:1 0.4055
3 net_98:1 net_98:2 0.4519
4 net_98:2 net_98:3 0.4658
5 net_98:3 net_98:4 0.3690
6 net_98:4 net_98:5 0.4019
7 net_98:5 inst_29:A1 0.0632
*END

*D_NET net_12 2.0111
*CONN
*I TAUGATE_206:Z O
*I inst_84:A I
*CAP
1 TAUGATE_206:Z 0.4700
2 net_12:1 0.3545
3 net_12:2 0.1033
4 net_12:3 0.4316
5 net_12:4 0.1782
6 inst_84:A 0.4734
*RES
2 TAUGATE_206:Z net_12:1 0.0376
3 net_12:1 net_12:2 0.0972
4 net_12:2 net_12:3 0.3594
5 net_12:3 net_12:4 0.0525
6 net_12:4 inst_84:A 0.3248
*END

*D_NET TAUNET_124 1.7532
*CONN
*I inst_39:ZN O
*I TAUGATE_124:A I
*CAP
1 inst_39:ZN 0.1267
2 TAUNET_124:1 0.2434
3 TAUNET_124:2 0.3726
4 TAUNET_124:3 0.2980
5 TAUNET_124:4 0.2454
6 TAUGATE_124:A 0.4670
*RES
2 inst_39:ZN TAUNET_124:1 0.1921
3 TAUNET_124:1 TAUNET_124:2 0.1376
4 TAUNET_124:2 TAUNET_124:3 0.4443
5 TAUNET_124:3 TAUNET_124:4 0.1288
6 TAUNET_124:4 TAUGATE_124:A 0.3022
*END

*D_NET TAUNET_217 1.8873
*CONN
*I inst_28:ZN O
*I TAUGATE_217:A I
*CAP
1 inst_28:ZN 0.0668
2 TAUNET_217:1 0.4131
3 TAUNET_217:2 0.4004
4 TAUNET_217:3 0.4814
5 TAUNET_217:4 0.1341
6 TAUGATE_217:A 0.3915
*RES
2 inst_28:ZN TAUNET_217:1 0.0282
3 TAUNET_217:1 TAUNET_217:2 0.3089
4 TAUNET_217:2 TAUNET_217:3 0.0253
5 TAUNET_217:3 TAUNET_217:4 0.3105
6 TAUNET_217:4 TAUGATE_217:A 0.1881
*END

*D_NET net_53 1.4805
*CONN
*I TAUGATE_181:Z O
*I inst_69:A I
*CAP
1 TAUGATE_181:Z 0.1592
2 net_53:1 0.2761
3 net_53:2 0.3643
4 net_53:3 0.2288
5 net_53:4 0.0666
6 inst_69:A 0.3854
*RES
2 TAUGATE_181:Z net_53:1 0.3580
3 net_53:1 net_53:2 0.3774
4 net_53:2 net_53:3 0.2731
5 net_53:3 net_53:4 0.1525
6 net_53:4 inst_69:A 0.0518
*END

*D_NET TAUNET_103 1.2665
*CONN
*I inst_26:ZN O
*I TAUGATE_103:A I
*CAP
1 inst_26:ZN 0.2154
2 TAUNET_103:1 0.1648
3 TAUNET_103:2 0.1855
4 TAUNET_103:3 0.0112
5 TAUNET_103:4 0.3530
6 TAUNET_103:5 0.1128
7 TAUGATE_103:A 0.2239
*RES
2 inst_26:ZN TAUNET_103:1 0.0917
3 TAUNET_103:1 TAUNET_103:2 0.4230
4 TAUNET_103:2 TAUNET_103:3 0.1494
5 TAUNET_103:3 TAUNET_103:4 0.3290
6 TAUNET_103:4 TAUNET_103:5 0.1620
7 TAUNET_103:5 TAUGATE_103:A 0.0029
*END

*D_NET net_93 1.0297
*CONN
*I TAUGATE_117:Z O
*I inst_123:D I
*CAP
1 TAUGATE_117:Z 0.1903
2 net_93:1 0.3484
3 net_93:2 0.0801
4 net_93:3 0.1392
5 net_93:4 0.1891
6 net_93:5 0.0464
7 inst_123:D 0.0364
*RES
2 TAUGATE_117:Z net_93:1 0.0279
3 net_93:1 net_93:2 0.4104
4 net_93:2 net_93:3 0.0649
5 net_93:3 net_93:4 0.0510
6 net_93:4 net_93:5 0.1600
7 net_93:5 inst_123:D 0.1748
*END

*D_NET TAUNET_177 1.6599
*CONN
*I inst_121:QN O
*I TAUGATE_177:A I
*CAP
1 inst_121:QN 0.1076
2 TAUNET_177:1 0.3388
3 TAUNET_177:2 0.4657
4 TAUNET_177:3 0.3595
5 TAUNET_177:4 0.2471
6 TAUNET_177:5 0.0832
7 TAUGATE_177:A 0.0580
*RES
2 inst_121:QN TAUNET_177:1 0.3736
3 TAUNET_177:1 TAUNET_177:2 0.0395
4 TAUNET_177:2 TAUNET_177:3 0.3644
5 TAUNET_177:3 TAUNET_177:4 0.0829
6 TAUNET_177:4 TAUNET_177:5 0.1977
7 TAUNET_177:5 TAUGATE_177:A 0.4694
*END

*D_NET TAUNET_255 2.0853
*CONN
*I inst_46:ZN O
*I TAUGATE_255:A I
*CAP
1 inst_46:ZN 0.3882
2 TAUNET_255:1 0.0413
3 TAUNET_255:2 0.4651
4 TAUNET_255:3 0.4065
5 TAUNET_255:4 0.3164
6 TAUNET_255:5 0.3513
7 TAUGATE_255:A 0.1165
*RES
2 inst_46:ZN TAUNET_255:1 0.0986
3 TAUNET_255:1 TAUNET_255:2 0.2243
4 TAUNET_255:2 TAUNET_255:3 0.1286
5 TAUNET_255:3 TAUNET_255:4 0.4269
6 TAUNET_255:4 TAUNET_255:5 0.2482
7 TAUNET_255:5 TAUGATE_255:A 0.2195
*END

*D_NET TAUNET_31 1.7569
*CONN
*I TAUGATE_74:Z O
*I TAUGATE_31:A I
*CAP
1 TAUGATE_74:Z 0.4091
2 TAUNET_31:1 0.3587
3 TAUNET_31:2 0.1869
4 TAUNET_31:3 0.4974
5 TAUGATE_31:A 0.3047
*RES
2 TAUGATE_74:Z TAUNET_31:1 0.1200
3 TAUNET_31:1 TAUNET_31:2 0.4969
4 TAUNET_31:2 TAUNET_31:3 0.1210
5 TAUNET_31:3 TAUGATE_31:A 0.1733
*END

*D_NET TAUNET_243 1.1896
*CONN
*I TAUGATE_10:Z O
*I TAUGATE_243:A I
*CAP
1 TAUGATE_10:Z 0.0283
2 TAUNET_243:1 0.2945
3 TAUNET_243:2 0.3177
4 TAUNET_243:3 0.2101
5 TAUGATE_243:A 0.3390
*RES
2 TAUGATE_10:Z TAUNET_243:1 0.2046
3 TAUNET_243:1 TAUNET_243:2 0.3404
4 TAUNET_243:2 TAUNET_243:3 0.1317
5 TAUNET_243:3 TAUGATE_243:A 0.3617
*END

*D_NET TAUNET_71 1.2055
*CONN
*I inst_71:Z O
*I TAUGATE_71:A I
*CAP
1 inst_71:Z 0.3629
2 TAUNET_71:1 0.3900
3 TAUNET_71:2 0.0557
4 TAUNET_71:3 0.1253
5 TAUGATE_71:A 0.2716
*RES
2 inst_71:Z TAUNET_71:1 0.3735
3 TAUNET_71:1 TAUNET_71:2 0.1079
4 TAUNET_71:2 TAUNET_71:3 0.3323
5 TAUNET_71:3 TAUGATE_71:A 0.2907
*END

*D_NET TAUNET_91 1.4383
*CONN
*I TAUGATE_25:Z O
*I TAUGATE_91:A I
*CAP
1 TAUGATE_25:Z 0.4966
2 TAUNET_91:1 0.2702
3 TAUNET_91:2 0.2135
4 TAUNET_91:3 0.0419
5 TAUNET_91:4 0.2773
6 TAUNET_91:5 0.0903
7 TAUGATE_91:A 0.0485
*RES
2 TAUGATE_25:Z TAUNET_91:1 0.4602
3 TAUNET_91:1 TAUNET_91:2 0.4262
4 TAUNET_91:2 TAUNET_91:3 0.2009
5 TAUNET_91:3 TAUNET_91:4 0.3114
6 TAUNET_91:4 TAUNET_91:5 0.3090
7 TAUNET_91:5 TAUGATE_91:A 0.3972
*END

*D_NET TAUNET_57 1.1430
*CONN
*I TAUGATE_116:Z O
*I TAUGATE_57:A I
*CAP
1 TAUGATE_116:Z 0.2443
2 TAUNET_57:1 0.3734
3 TAUNET_57:2 0.1567
4 TAUNET_57:3 0.1247
5 TAUGATE_57:A 0.2439
*RES
2 TAUGATE_116:Z TAUNET_57:1 0.2588
3 TAUNET_57:1 TAUNET_57:2 0.4474
4 TAUNET_57:2 TAUNET_57:3 0.3528
5 TAUNET_57:3 TAUGATE_57:A 0.0472
*END

*D_NET TAUNET_208 1.3929
*CONN
*I inst_53:ZN O
*I TAUGATE_208:A I
*CAP
1 inst_53:ZN 0.1981
2 TAUNET_208:1 0.0169
3 TAUNET_208:2 0.4026
4 TAUNET_208:3 0.4684
5 TAUNET_208:4 0.2490
6 TAUGATE_208:A 0.0579
*RES
2 inst_53:ZN TAUNET_208:1 0.0423
3 TAUNET_208:1 TAUNET_208:2 0.2861
4 TAUNET_208:2 TAUNET_208:3 0.4278
5 TAUNET_208:3 TAUNET_208:4 0.3875
6 TAUNET_208:4 TAUGATE_208:A 0.4796
*END

*D_NET TAUNET_9 1.0064
*CONN
*I TAUGATE_140:Z O
*I TAUGATE_9:A I
*CAP
1 TAUGATE_140:Z 0.1554
2 TAUNET_9:1 0.4380
3 TAUGATE_9:A 0.4130
*RES
2 TAUGATE_140:Z TAUNET_9:1 0.4990
3 TAUNET_9:1 TAUGATE_9:A 0.2134
*END

*D_NET TAUNET_240 2.0765
*CONN
*I TAUGATE_59:Z O
*I TAUGATE_240:A I
*CAP
1 TAUGATE_59:Z 0.4947
2 TAUNET_240:1 0.2854
3 TAUNET_240:2 0.4464
4 TAUNET_240:3 0.2438
5 TAUNET_240:4 0.2969
6 TAUGATE_240:A 0.3091
*RES
2 TAUGATE_59:Z TAUNET_240:1 0.5006
3 TAUNET_240:1 TAUNET_240:2 0.2264
4 TAUNET_240:2 TAUNET_240:3 0.3973
5 TAUNET_240:3 TAUNET_240:4 0.2044
6 TAUNET_240:4 TAUGATE_240:A 0.1531
*END

*D_NET TAUNET_128 1.2691
*CONN
*I inst_4:ZN O
*I TAUGATE_128:A I
*CAP
1 inst_4:ZN 0.2618
2 TAUNET_128:1 0.4002
3 TAUNET_128:2 0.3652
4 TAUNET_128:3 0.1857
5 TAUGATE_128:A 0.0562
*RES
2 inst_4:ZN TAUNET_128:1 0.0882
3 TAUNET_128:1 TAUNET_128:2 0.4386
4 TAUNET_128:2 TAUNET_128:3 0.2715
5 TAUNET_128:3 TAUGATE_128:A 0.0199
*END

*D_NET net_76 0.5520
*CONN
*I TAUGATE_210:Z O
*I inst_118:D I
*CAP
1 TAUGATE_210:Z 0.1459
2 net_76:1 0.1026
3 net_76:2 0.1939
4 inst_118:D 0.1095
*RES
2 TAUGATE_210:Z net_76:1 0.0212
3 net_76:1 net_76:2 0.1417
4 net_76:2 inst_118:D 0.2190
*END

*D_NET TAUNET_161 1.5644
*CONN
*I TAUGATE_48:Z O
*I TAUGATE_161:A I
*CAP
1 TAUGATE_48:Z 0.1138
2 TAUNET_161:1 0.3663
3 TAUNET_161:2 0.2540
4 TAUNET_161:3 0.0526
5 TAUNET_161:4 0.2388
6 TAUNET_161:5 0.1787
7 TAUGATE_161:A 0.3603
*RES
2 TAUGATE_48:Z TAUNET_161:1 0.0603
3 TAUNET_161:1 TAUNET_161:2 0.0863
4 TAUNET_161:2 TAUNET_161:3 0.3102
5 TAUNET_161:3 TAUNET_161:4 0.1239
6 TAUNET_161:4 TAUNET_161:5 0.2473
7 TAUNET_161:5 TAUGATE_161:A 0.0055
*END

*D_NET TAUNET_249 1.2459
*CONN
*I inst_21:ZN O
*I TAUGATE_249:A I
*CAP
1 inst_21:ZN 0.2412
2 TAUNET_249:1 0.4441
3 TAUNET_249:2 0.4218
4 TAUNET_249:3 0.0848
5 TAUNET_249:4 0.0266
6 TAUGATE_249:A 0.0274
*RES
2 inst_21:ZN TAUNET_249:1 0.4218
3 TAUNET_249:1 TAUNET_249:2 0.2061
4 TAUNET_249:2 TAUNET_249:3 0.2110
5 TAUNET_249:3 TAUNET_249:4 0.4583
6 TAUNET_249:4 TAUGATE_249:A 0.3985
*END

*D_NET net_101 1.9898
*CONN
*I TAUGATE_188:Z O
*I inst_31:A1 I
*CAP
1 TAUGATE_188:Z 0.0725
2 net_101:1 0.3124
3 net_101:2 0.3685
4 net_101:3 0.4317
5 net_101:4 0.1801
6 net_101:5 0.2826
7 inst_31:A1 0.3420
*RES
2 TAUGATE_188:Z net_101:1 0.0965
3 net_101:1 net_101:2 0.2555
4 net_101:2 net_101:3 0.1304
5 net_101:3 net_101:4 0.3675
6 net_101:4 net_101:5 0.4634
7 net_101:5 inst_31:A1 0.2869
*END

*D_NET net_111 0.5511
*CONN
*I TAUGATE_163:Z O
*I inst_30:A2 I
*CAP
1 TAUGATE_163:Z 0.1182
2 net_111:1 0.0608
3 inst_30:A2 0.3721
*RES
2 TAUGATE_163:Z net_111:1 0.4648
3 net_111:1 inst_30:A2 0.2376
*END

*D_NET net_90 1.2804
*CONN
*I TAUGATE_241:Z O
*I inst_62:A2 I
*I inst_34:A1 I
*CAP
1 TAUGATE_241:Z 0.3081
2 net_90:1 0.0264
3 net_90:2 0.2502
4 inst_62:A2 0.2506
5 net_90:3 0.2747
6 inst_34:A1 0.1704
*RES
2 TAUGATE_241:Z net_90:1 0.4486
3 net_90:1 net_90:2 0.0641
4 net_90:2 inst_62:A2 0.0138
5 net_90:1 net_90:3 0.2303
6 net_90:3 inst_34:A1 0.0121
*END

*D_NET TAUNET_192 0.6221
*CONN
*P A0 I
*I TAUGATE_192:A I
*CAP
1 A0 0.0267
2 TAUNET_192:1 0.1079
3 TAUNET_192:2 0.3621
4 TAUGATE_192:A 0.1254
*RES
2 A0 TAUNET_192:1 0.3490
3 TAUNET_192:1 TAUNET_192:2 0.4751
4 TAUNET_192:2 TAUGATE_192:A 0.3195
*END

*D_NET TAUNET_151 1.2894
*CONN
*I inst_78:ZN O
*I TAUGATE_151:A I
*CAP
1 inst_78:ZN 0.2505
2 TAUNET_151:1 0.3990
3 TAUNET_151:2 0.0185
4 TAUNET_151:3 0.3777
5 TAUGATE_151:A 0.2437
*RES
2 inst_78:ZN TAUNET_151:1 0.3641
3 TAUNET_151:1 TAUNET_151:2 0.1411
4 TAUNET_151:2 TAUNET_151:3 0.2452
5 TAUNET_151:3 TAUGATE_151:A 0.2723
*END

*D_NET TAUNET_141 0.3445
*CONN
*I inst_100:ZN O
*I TAUGATE_141:A I
*CAP
1 inst_100:ZN 0.2449
2 TAUNET_141:1 0.0917
3 TAUGATE_141:A 0.0078
*RES
2 inst_100:ZN TAUNET_141:1 0.0227
3 TAUNET_141:1 TAUGATE_141:A 0.0264
*END

*D_NET net_100 0.9773
*CONN
*I TAUGATE_235:Z O
*I inst_26:A1 I
*CAP
1 TAUGATE_235:Z 0.1906
2 net_100:1 0.0937
3 net_100:2 0.2944
4 inst_26:A1 0.3987
*RES
2 TAUGATE_235:Z net_100:1 0.0209
3 net_100:1 net_100:2 0.1182
4 net_100:2 inst_26:A1 0.1067
*END

*D_NET net_85 2.0282
*CONN
*I TAUGATE_212:Z O
*I inst_61:A2 I
*CAP
1 TAUGATE_212:Z 0.3672
2 net_85:1 0.1157
3 net_85:2 0.1901
4 net_85:3 0.2138
5 net_85:4 0.5008
6 net_85:5 0.2979
7 inst_61:A2 0.3428
*RES
2 TAUGATE_212:Z net_85:1 0.2325
3 net_85:1 net_85:2 0.2733
4 net_85:2 net_85:3 0.1266
5 net_85:3 net_85:4 0.3814
6 net_85:4 net_85:5 0.1363
7 net_85:5 inst_61:A2 0.3277
*END

*D_NET TAUNET_49 1.7680
*CONN
*I TAUGATE_159:Z O
*I TAUGATE_49:A I
*CAP
1 TAUGATE_159:Z 0.4503
2 TAUNET_49:1 0.1603
3 TAUNET_49:2 0.4423
4 TAUNET_49:3 0.1159
5 TAUNET_49:4 0.4527
6 TAUGATE_49:A 0.1465
*RES
2 TAUGATE_159:Z TAUNET_49:1 0.1463
3 TAUNET_49:1 TAUNET_49:2 0.4621
4 TAUNET_49:2 TAUNET_49:3 0.4065
5 TAUNET_49:3 TAUNET_49:4 0.0227
6 TAUNET_49:4 TAUGATE_49:A 0.2236
*END

*D_NET TAUNET_201 1.0395
*CONN
*I inst_75:ZN O
*I TAUGATE_201:A I
*CAP
1 inst_75:ZN 0.0715
2 TAUNET_201:1 0.1861
3 TAUNET_201:2 0.4367
4 TAUGATE_201:A 0.3452
*RES
2 inst_75:ZN TAUNET_201:1 0.0313
3 TAUNET_201:1 TAUNET_201:2 0.1217
4 TAUNET_201:2 TAUGATE_201:A 0.0111
*END

*D_NET TAUNET_87 1.2561
*CONN
*I inst_43:ZN O
*I TAUGATE_87:A I
*CAP
1 inst_43:ZN 0.0613
2 TAUNET_87:1 0.4407
3 TAUNET_87:2 0.4978
4 TAUGATE_87:A 0.2563
*RES
2 inst_43:ZN TAUNET_87:1 0.2595
3 TAUNET_87:1 TAUNET_87:2 0.2603
4 TAUNET_87:2 TAUGATE_87:A 0.2874
*END

*D_NET TAUNET_231 1.0267
*CONN
*I TAUGATE_38:Z O
*I TAUGATE_231:A I
*CAP
1 TAUGATE_38:Z 0.2768
2 TAUNET_231:1 0.2053
3 TAUNET_231:2 0.2140
4 TAUGATE_231:A 0.3306
*RES
2 TAUGATE_38:Z TAUNET_231:1 0.1569
3 TAUNET_231:1 TAUNET_231:2 0.2580
4 TAUNET_231:2 TAUGATE_231:A 0.2138
*END

*D_NET net_115 2.1838
*CONN
*I TAUGATE_253:Z O
*I inst_39:A1 I
*CAP
1 TAUGATE_253:Z 0.3806
2 net_115:1 0.4608
3 net_115:2 0.4692
4 net_115:3 0.4766
5 net_115:4 0.0589
6 net_115:5 0.0962
7 inst_39:A1 0.2415
*RES
2 TAUGATE_253:Z net_115:1 0.1750
3 net_115:1 net_115:2 0.4103
4 net_115:2 net_115:3 0.0845
5 net_115:3 net_115:4 0.1888
6 net_115:4 net_115:5 0.1436
7 net_115:5 inst_39:A1 0.1762
*END

*D_NET TAUNET_50 0.3366
*CONN
*I TAUGATE_173:Z O
*I TAUGATE_50:A I
*CAP
1 TAUGATE_173:Z 0.0806
2 TAUNET_50:1 0.2069
3 TAUGATE_50:A 0.0491
*RES
2 TAUGATE_173:Z TAUNET_50:1 0.4137
3 TAUNET_50:1 TAUGATE_50:A 0.3046
*END

*D_NET TAUNET_72 1.0479
*CONN
*P B3 I
*I TAUGATE_72:A I
*CAP
1 B3 0.2640
2 TAUNET_72:1 0.4110
3 TAUNET_72:2 0.0191
4 TAUGATE_72:A 0.3538
*RES
2 B3 TAUNET_72:1 0.4300
3 TAUNET_72:1 TAUNET_72:2 0.3629
4 TAUNET_72:2 TAUGATE_72:A 0.0787
*END

*D_NET net_4 2.0675
*CONN
*I TAUGATE_251:Z O
*I inst_81:A I
*CAP
1 TAUGATE_251:Z 0.2971
2 net_4:1 0.5010
3 net_4:2 0.3538
4 net_4:3 0.4649
5 net_4:4 0.0482
6 net_4:5 0.1062
7 inst_81:A 0.2963
*RES
2 TAUGATE_251:Z net_4:1 0.4911
3 net_4:1 net_4:2 0.2002
4 net_4:2 net_4:3 0.2573
5 net_4:3 net_4:4 0.3761
6 net_4:4 net_4:5 0.0616
7 net_4:5 inst_81:A 0.4298
*END

*D_NET net_17 0.5116
*CONN
*I TAUGATE_209:Z O
*I inst_38:A1 I
*CAP
1 TAUGATE_209:Z 0.2634
2 net_17:1 0.0745
3 inst_38:A1 0.1738
*RES
2 TAUGATE_209:Z net_17:1 0.4336
3 net_17:1 inst_38:A1 0.4556
*END

*D_NET TAUNET_134 1.0764
*CONN
*I TAUGATE_56:Z O
*I TAUGATE_134:A I
*CAP
1 TAUGATE_56:Z 0.0036
2 TAUNET_134:1 0.2737
3 TAUNET_134:2 0.3095
4 TAUGATE_134:A 0.4895
*RES
2 TAUGATE_56:Z TAUNET_134:1 0.4033
3 TAUNET_134:1 TAUNET_134:2 0.2734
4 TAUNET_134:2 TAUGATE_134:A 0.3461
*END

*D_NET A1 1.3424
*CONN
*I TAUGATE_60:Z O
*I inst_67:A I
*CAP
1 TAUGATE_60:Z 0.0418
2 A1:1 0.3815
3 A1:2 0.1458
4 A1:3 0.4915
5 A1:4 0.0683
6 inst_67:A 0.2135
*RES
2 TAUGATE_60:Z A1:1 0.4484
3 A1:1 A1:2 0.1379
4 A1:2 A1:3 0.1139
5 A1:3 A1:4 0.0489
6 A1:4 inst_67:A 0.0861
*END

*D_NET TAUNET_19 1.2401
*CONN
*I TAUGATE_234:Z O
*I TAUGATE_19:A I
*CAP
1 TAUGATE_234:Z 0.4806
2 TAUNET_19:1 0.1114
3 TAUNET_19:2 0.0198
4 TAUNET_19:3 0.2366
5 TAUNET_19:4 0.1100
6 TAUGATE_19:A 0.2818
*RES
2 TAUGATE_234:Z TAUNET_19:1 0.3290
3 TAUNET_19:1 TAUNET_19:2 0.1592
4 TAUNET_19:2 TAUNET_19:3 0.4236
5 TAUNET_19:3 TAUNET_19:4 0.3328
6 TAUNET_19:4 TAUGATE_19:A 0.1906
*END

*D_NET TAUNET_34 1.5747
*CONN
*I TAUGATE_155:Z O
*I TAUGATE_34:A I
*CAP
1 TAUGATE_155:Z 0.4347
2 TAUNET_34:1 0.1394
3 TAUNET_34:2 0.0096
4 TAUNET_34:3 0.4963
5 TAUNET_34:4 0.2377
6 TAUGATE_34:A 0.2571
*RES
2 TAUGATE_155:Z TAUNET_34:1 0.3610
3 TAUNET_34:1 TAUNET_34:2 0.0042
4 TAUNET_34:2 TAUNET_34:3 0.2690
5 TAUNET_34:3 TAUNET_34:4 0.3841
6 TAUNET_34:4 TAUGATE_34:A 0.3400
*END

*D_NET TAUNET_236 1.2277
*CONN
*I TAUGATE_53:Z O
*I TAUGATE_236:A I
*CAP
1 TAUGATE_53:Z 0.3112
2 TAUNET_236:1 0.4134
3 TAUNET_236:2 0.0741
4 TAUGATE_236:A 0.4290
*RES
2 TAUGATE_53:Z TAUNET_236:1 0.4891
3 TAUNET_236:1 TAUNET_236:2 0.0621
4 TAUNET_236:2 TAUGATE_236:A 0.2122
*END

*D_NET net_87 0.7629
*CONN
*I TAUGATE_197:Z O
*I inst_19:A3 I
*CAP
1 TAUGATE_197:Z 0.1253
2 net_87:1 0.2343
3 net_87:2 0.1106
4 net_87:3 0.0283
5 inst_19:A3 0.2644
*RES
2 TAUGATE_197:Z net_87:1 0.3395
3 net_87:1 net_87:2 0.4160
4 net_87:2 net_87:3 0.1311
5 net_87:3 inst_19:A3 0.1702
*END

*D_NET TAUNET_44 0.8144
*CONN
*I TAUGATE_132:Z O
*I TAUGATE_44:A I
*CAP
1 TAUGATE_132:Z 0.0383
2 TAUNET_44:1 0.2177
3 TAUNET_44:2 0.0520
4 TAUNET_44:3 0.1787
5 TAUGATE_44:A 0.3277
*RES
2 TAUGATE_132:Z TAUNET_44:1 0.2308
3 TAUNET_44:1 TAUNET_44:2 0.1825
4 TAUNET_44:2 TAUNET_44:3 0.4154
5 TAUNET_44:3 TAUGATE_44:A 0.4205
*END

*D_NET net_0 1.8370
*CONN
*I TAUGATE_110:Z O
*I inst_127:A2 I
*I inst_77:A I
*CAP
1 TAUGATE_110:Z 0.3303
2 net_0:1 0.3450
3 inst_127:A2 0.2552
4 net_0:2 0.3448
5 net_0:3 0.2539
6 net_0:4 0.0169
7 inst_77:A 0.2910
*RES
2 TAUGATE_110:Z net_0:1 0.2397
3 net_0:1 inst_127:A2 0.3943
4 net_0:1 net_0:2 0.3418
5 net_0:2 net_0:3 0.0277
6 net_0:3 net_0:4 0.2232
7 net_0:4 inst_77:A 0.0700
*END

*D_NET TAUNET_207 0.5906
*CONN
*I inst_109:ZN O
*I TAUGATE_207:A I
*CAP
1 inst_109:ZN 0.4916
2 TAUNET_207:1 0.0722
3 TAUGATE_207:A 0.0268
*RES
2 inst_109:ZN TAUNET_207:1 0.0274
3 TAUNET_207:1 TAUGATE_207:A 0.0955
*END

*D_NET TAUNET_185 0.7110
*CONN
*P A3 I
*I TAUGATE_185:A I
*CAP
1 A3 0.0730
2 TAUNET_185:1 0.1500
3 TAUNET_185:2 0.2720
4 TAUNET_185:3 0.0605
5 TAUGATE_185:A 0.1555
*RES
2 A3 TAUNET_185:1 0.4347
3 TAUNET_185:1 TAUNET_185:2 0.2976
4 TAUNET_185:2 TAUNET_185:3 0.3531
5 TAUNET_185:3 TAUGATE_185:A 0.0316
*END

*D_NET net_35 2.5100
*CONN
*I TAUGATE_187:Z O
*I inst_70:B I
*I inst_41:A1 I
*I inst_98:A I
*CAP
1 TAUGATE_187:Z 0.0755
2 net_35:1 0.3515
3 net_35:2 0.2983
4 net_35:3 0.4269
5 net_35:4 0.0493
6 inst_41:A1 0.0341
7 net_35:5 0.3051
8 inst_70:B 0.1197
9 net_35:6 0.3150
10 net_35:7 0.0137
11 net_35:8 0.2108
12 inst_98:A 0.3101
*RES
2 TAUGATE_187:Z net_35:1 0.3020
3 net_35:1 net_35:2 0.3389
4 net_35:2 net_35:3 0.4000
5 net_35:3 net_35:4 0.0188
6 net_35:4 inst_41:A1 0.4709
7 net_35:3 net_35:5 0.2956
8 net_35:5 inst_70:B 0.2210
9 net_35:1 net_35:6 0.0161
10 net_35:6 net_35:7 0.2047
11 net_35:7 net_35:8 0.3729
12 net_35:8 inst_98:A 0.0610
*END

*D_NET net_16 1.7628
*CONN
*I TAUGATE_127:Z O
*I inst_1:A I
*CAP
1 TAUGATE_127:Z 0.2910
2 net_16:1 0.3083
3 net_16:2 0.1250
4 net_16:3 0.3526
5 net_16:4 0.3715
6 inst_1:A 0.3144
*RES
2 TAUGATE_127:Z net_16:1 0.3618
3 net_16:1 net_16:2 0.0820
4 net_16:2 net_16:3 0.2174
5 net_16:3 net_16:4 0.3638
6 net_16:4 inst_1:A 0.4097
*END

*D_NET TAUNET_102 1.8560
*CONN
*I inst_66:Z O
*I TAUGATE_102:A I
*CAP
1 inst_66:Z 0.4080
2 TAUNET_102:1 0.4981
3 TAUNET_102:2 0.3134
4 TAUNET_102:3 0.4059
5 TAUNET_102:4 0.1396
6 TAUGATE_102:A 0.0910
*RES
2 inst_66:Z TAUNET_102:1 0.1278
3 TAUNET_102:1 TAUNET_102:2 0.3093
4 TAUNET_102:2 TAUNET_102:3 0.3342
5 TAUNET_102:3 TAUNET_102:4 0.2150
6 TAUNET_102:4 TAUGATE_102:A 0.0109
*END

*D_NET TAUNET_56 0.4329
*CONN
*I TAUGATE_88:Z O
*I TAUGATE_56:A I
*CAP
1 TAUGATE_88:Z 0.2298
2 TAUNET_56:1 0.0044
3 TAUGATE_56:A 0.1986
*RES
2 TAUGATE_88:Z TAUNET_56:1 0.0476
3 TAUNET_56:1 TAUGATE_56:A 0.0521
*END

*D_NET TAUNET_110 1.1336
*CONN
*I TAUGATE_17:Z O
*I TAUGATE_110:A I
*CAP
1 TAUGATE_17:Z 0.0043
2 TAUNET_110:1 0.4724
3 TAUNET_110:2 0.2677
4 TAUNET_110:3 0.2426
5 TAUGATE_110:A 0.1466
*RES
2 TAUGATE_17:Z TAUNET_110:1 0.2784
3 TAUNET_110:1 TAUNET_110:2 0.2008
4 TAUNET_110:2 TAUNET_110:3 0.3776
5 TAUNET_110:3 TAUGATE_110:A 0.2937
*END

*D_NET TAUNET_41 1.7223
*CONN
*I TAUGATE_151:Z O
*I TAUGATE_41:A I
*CAP
1 TAUGATE_151:Z 0.2822
2 TAUNET_41:1 0.0309
3 TAUNET_41:2 0.1138
4 TAUNET_41:3 0.3809
5 TAUNET_41:4 0.3567
6 TAUNET_41:5 0.3242
7 TAUGATE_41:A 0.2336
*RES
2 TAUGATE_151:Z TAUNET_41:1 0.3863
3 TAUNET_41:1 TAUNET_41:2 0.2365
4 TAUNET_41:2 TAUNET_41:3 0.1037
5 TAUNET_41:3 TAUNET_41:4 0.3572
6 TAUNET_41:4 TAUNET_41:5 0.2211
7 TAUNET_41:5 TAUGATE_41:A 0.2185
*END

*D_NET TAUNET_164 1.2191
*CONN
*I TAUGATE_41:Z O
*I TAUGATE_164:A I
*CAP
1 TAUGATE_41:Z 0.2538
2 TAUNET_164:1 0.4791
3 TAUNET_164:2 0.2417
4 TAUGATE_164:A 0.2444
*RES
2 TAUGATE_41:Z TAUNET_164:1 0.4262
3 TAUNET_164:1 TAUNET_164:2 0.3737
4 TAUNET_164:2 TAUGATE_164:A 0.3015
*END

*D_NET net_42 1.5079
*CONN
*I TAUGATE_136:Z O
*I inst_28:A1 I
*CAP
1 TAUGATE_136:Z 0.3035
2 net_42:1 0.0863
3 net_42:2 0.2362
4 net_42:3 0.1365
5 net_42:4 0.0277
6 net_42:5 0.4263
7 inst_28:A1 0.2912
*RES
2 TAUGATE_136:Z net_42:1 0.1111
3 net_42:1 net_42:2 0.3711
4 net_42:2 net_42:3 0.0512
5 net_42:3 net_42:4 0.1351
6 net_42:4 net_42:5 0.0984
7 net_42:5 inst_28:A1 0.0368
*END

*D_NET TAUNET_142 1.0413
*CONN
*I TAUGATE_16:Z O
*I TAUGATE_142:A I
*CAP
1 TAUGATE_16:Z 0.1423
2 TAUNET_142:1 0.1146
3 TAUNET_142:2 0.3234
4 TAUGATE_142:A 0.4610
*RES
2 TAUGATE_16:Z TAUNET_142:1 0.4832
3 TAUNET_142:1 TAUNET_142:2 0.2776
4 TAUNET_142:2 TAUGATE_142:A 0.3781
*END

*D_NET TAUNET_64 1.1921
*CONN
*I TAUGATE_18:Z O
*I TAUGATE_64:A I
*CAP
1 TAUGATE_18:Z 0.0185
2 TAUNET_64:1 0.1588
3 TAUNET_64:2 0.3738
4 TAUNET_64:3 0.4556
5 TAUNET_64:4 0.1835
6 TAUGATE_64:A 0.0020
*RES
2 TAUGATE_18:Z TAUNET_64:1 0.2614
3 TAUNET_64:1 TAUNET_64:2 0.3010
4 TAUNET_64:2 TAUNET_64:3 0.2164
5 TAUNET_64:3 TAUNET_64:4 0.4372
6 TAUNET_64:4 TAUGATE_64:A 0.1158
*END

*D_NET TAUNET_211 1.1191
*CONN
*I inst_17:ZN O
*I TAUGATE_211:A I
*CAP
1 inst_17:ZN 0.3810
2 TAUNET_211:1 0.1662
3 TAUNET_211:2 0.3178
4 TAUGATE_211:A 0.2541
*RES
2 inst_17:ZN TAUNET_211:1 0.2497
3 TAUNET_211:1 TAUNET_211:2 0.4625
4 TAUNET_211:2 TAUGATE_211:A 0.2343
*END

*D_NET TAUNET_221 1.0962
*CONN
*I inst_87:ZN O
*I TAUGATE_221:A I
*CAP
1 inst_87:ZN 0.3461
2 TAUNET_221:1 0.4109
3 TAUNET_221:2 0.0945
4 TAUNET_221:3 0.2326
5 TAUGATE_221:A 0.0121
*RES
2 inst_87:ZN TAUNET_221:1 0.2674
3 TAUNET_221:1 TAUNET_221:2 0.2072
4 TAUNET_221:2 TAUNET_221:3 0.0414
5 TAUNET_221:3 TAUGATE_221:A 0.2455
*END

*D_NET net_109 1.7627
*CONN
*I TAUGATE_211:Z O
*I inst_34:A2 I
*CAP
1 TAUGATE_211:Z 0.0138
2 net_109:1 0.3131
3 net_109:2 0.4392
4 net_109:3 0.4048
5 net_109:4 0.0368
6 net_109:5 0.3283
7 inst_34:A2 0.2266
*RES
2 TAUGATE_211:Z net_109:1 0.4199
3 net_109:1 net_109:2 0.3736
4 net_109:2 net_109:3 0.3306
5 net_109:3 net_109:4 0.3042
6 net_109:4 net_109:5 0.1317
7 net_109:5 inst_34:A2 0.1481
*END

*D_NET TAUNET_244 1.0046
*CONN
*I inst_97:ZN O
*I TAUGATE_244:A I
*CAP
1 inst_97:ZN 0.2201
2 TAUNET_244:1 0.3013
3 TAUNET_244:2 0.0758
4 TAUNET_244:3 0.0262
5 TAUGATE_244:A 0.3812
*RES
2 inst_97:ZN TAUNET_244:1 0.0656
3 TAUNET_244:1 TAUNET_244:2 0.1550
4 TAUNET_244:2 TAUNET_244:3 0.0047
5 TAUNET_244:3 TAUGATE_244:A 0.1418
*END

*D_NET blif_reset_net 1.5283
*CONN
*I TAUGATE_174:Z O
*I inst_109:A I
*CAP
1 TAUGATE_174:Z 0.3805
2 blif_reset_net:1 0.0497
3 blif_reset_net:2 0.4938
4 blif_reset_net:3 0.3913
5 inst_109:A 0.2131
*RES
2 TAUGATE_174:Z blif_reset_net:1 0.3201
3 blif_reset_net:1 blif_reset_net:2 0.0320
4 blif_reset_net:2 blif_reset_net:3 0.2786
5 blif_reset_net:3 inst_109:A 0.3378
*END

*D_NET net_80 2.0655
*CONN
*I TAUGATE_113:Z O
*I inst_120:D I
*CAP
1 TAUGATE_113:Z 0.2454
2 net_80:1 0.2663
3 net_80:2 0.3641
4 net_80:3 0.1740
5 net_80:4 0.2701
6 net_80:5 0.3351
7 inst_120:D 0.4105
*RES
2 TAUGATE_113:Z net_80:1 0.3004
3 net_80:1 net_80:2 0.3665
4 net_80:2 net_80:3 0.1341
5 net_80:3 net_80:4 0.0859
6 net_80:4 net_80:5 0.1706
7 net_80:5 inst_120:D 0.3812
*END

*D_NET net_65 0.4838
*CONN
*I TAUGATE_62:Z O
*I inst_16:A1 I
*CAP
1 TAUGATE_62:Z 0.1227
2 net_65:1 0.0059
3 inst_16:A1 0.3552
*RES
2 TAUGATE_62:Z net_65:1 0.3839
3 net_65:1 inst_16:A1 0.1840
*END

*D_NET TAUNET_81 2.5126
*CONN
*I TAUGATE_15:Z O
*I TAUGATE_81:A I
*CAP
1 TAUGATE_15:Z 0.3573
2 TAUNET_81:1 0.3575
3 TAUNET_81:2 0.1715
4 TAUNET_81:3 0.3050
5 TAUNET_81:4 0.3594
6 TAUNET_81:5 0.4902
7 TAUGATE_81:A 0.4716
*RES
2 TAUGATE_15:Z TAUNET_81:1 0.2112
3 TAUNET_81:1 TAUNET_81:2 0.1762
4 TAUNET_81:2 TAUNET_81:3 0.1166
5 TAUNET_81:3 TAUNET_81:4 0.1660
6 TAUNET_81:4 TAUNET_81:5 0.2177
7 TAUNET_81:5 TAUGATE_81:A 0.2908
*END

*D_NET TAUNET_48 1.2533
*CONN
*I TAUGATE_248:Z O
*I TAUGATE_48:A I
*CAP
1 TAUGATE_248:Z 0.3308
2 TAUNET_48:1 0.4669
3 TAUNET_48:2 0.1932
4 TAUNET_48:3 0.0675
5 TAUNET_48:4 0.0053
6 TAUNET_48:5 0.1459
7 TAUGATE_48:A 0.0437
*RES
2 TAUGATE_248:Z TAUNET_48:1 0.4598
3 TAUNET_48:1 TAUNET_48:2 0.3838
4 TAUNET_48:2 TAUNET_48:3 0.2033
5 TAUNET_48:3 TAUNET_48:4 0.3263
6 TAUNET_48:4 TAUNET_48:5 0.4574
7 TAUNET_48:5 TAUGATE_48:A 0.4683
*END

*D_NET TAUNET_189 1.4761
*CONN
*I inst_110:ZN O
*I TAUGATE_189:A I
*CAP
1 inst_110:ZN 0.4873
2 TAUNET_189:1 0.4800
3 TAUNET_189:2 0.4518
4 TAUGATE_189:A 0.0570
*RES
2 inst_110:ZN TAUNET_189:1 0.4909
3 TAUNET_189:1 TAUNET_189:2 0.0572
4 TAUNET_189:2 TAUGATE_189:A 0.5008
*END

*D_NET TAUNET_154 2.4403
*CONN
*I inst_29:ZN O
*I TAUGATE_154:A I
*CAP
1 inst_29:ZN 0.2457
2 TAUNET_154:1 0.2594
3 TAUNET_154:2 0.3565
4 TAUNET_154:3 0.4074
5 TAUNET_154:4 0.4309
6 TAUNET_154:5 0.4474
7 TAUGATE_154:A 0.2931
*RES
2 inst_29:ZN TAUNET_154:1 0.2848
3 TAUNET_154:1 TAUNET_154:2 0.2246
4 TAUNET_154:2 TAUNET_154:3 0.3320
5 TAUNET_154:3 TAUNET_154:4 0.3870
6 TAUNET_154:4 TAUNET_154:5 0.3663
7 TAUNET_154:5 TAUGATE_154:A 0.1512
*END

*D_NET TAUNET_145 2.3961
*CONN
*I TAUGATE_23:Z O
*I TAUGATE_145:A I
*CAP
1 TAUGATE_23:Z 0.4493
2 TAUNET_145:1 0.2866
3 TAUNET_145:2 0.1873
4 TAUNET_145:3 0.1599
5 TAUNET_145:4 0.3589
6 TAUNET_145:5 0.4697
7 TAUGATE_145:A 0.4844
*RES
2 TAUGATE_23:Z TAUNET_145:1 0.0401
3 TAUNET_145:1 TAUNET_145:2 0.2861
4 TAUNET_145:2 TAUNET_145:3 0.1883
5 TAUNET_145:3 TAUNET_145:4 0.3075
6 TAUNET_145:4 TAUNET_145:5 0.0604
7 TAUNET_145:5 TAUGATE_145:A 0.3908
*END

*D_NET net_50 1.0274
*CONN
*I TAUGATE_73:Z O
*I inst_59:A2 I
*CAP
1 TAUGATE_73:Z 0.4162
2 net_50:1 0.0491
3 net_50:2 0.3511
4 inst_59:A2 0.2111
*RES
2 TAUGATE_73:Z net_50:1 0.3010
3 net_50:1 net_50:2 0.1515
4 net_50:2 inst_59:A2 0.0492
*END

*D_NET net_96 15.6854
*CONN
*I TAUGATE_207:Z O
*I inst_125:RN I
*I inst_114:RN I
*I inst_123:RN I
*I inst_121:RN I
*I inst_118:RN I
*I inst_115:RN I
*I inst_112:RN I
*I inst_122:RN I
*I inst_124:RN I
*I inst_113:RN I
*I inst_111:RN I
*I inst_117:RN I
*I inst_120:RN I
*I inst_119:RN I
*I inst_116:RN I
*CAP
1 TAUGATE_207:Z 0.0711
2 net_96:1 0.0021
3 net_96:2 0.2080
4 net_96:3 0.3529
5 inst_124:RN 0.4886
6 net_96:4 0.0882
7 net_96:5 0.2924
8 inst_114:RN 0.4780
9 net_96:6 0.4484
10 net_96:7 0.0762
11 net_96:8 0.1986
12 inst_123:RN 0.3922
13 net_96:9 0.4169
14 net_96:10 0.3167
15 net_96:11 0.3376
16 net_96:12 0.1073
17 net_96:13 0.3579
18 inst_121:RN 0.1300
19 net_96:14 0.3260
20 net_96:15 0.3466
21 net_96:16 0.4948
22 net_96:17 0.4038
23 inst_118:RN 0.1954
24 net_96:18 0.0690
25 net_96:19 0.2231
26 net_96:20 0.2934
27 inst_115:RN 0.0661
28 net_96:21 0.1282
29 net_96:22 0.2766
30 net_96:23 0.4045
31 net_96:24 0.4267
32 inst_112:RN 0.4596
33 net_96:25 0.0339
34 net_96:26 0.0519
35 net_96:27 0.4874
36 inst_122:RN 0.0374
37 net_96:28 0.1540
38 net_96:29 0.0325
39 net_96:30 0.0924
40 net_96:31 0.1850
41 net_96:32 0.1516
42 inst_125:RN 0.2746
43 net_96:33 0.2030
44 net_96:34 0.2656
45 net_96:35 0.4413
46 inst_113:RN 0.1336
47 net_96:36 0.2654
48 inst_111:RN 0.2245
49 net_96:37 0.1903
50 net_96:38 0.2143
51 net_96:39 0.0701
52 net_96:40 0.2421
53 net_96:41 0.4634
54 inst_117:RN 0.2497
55 net_96:42 0.1341
56 inst_120:RN 0.4054
57 net_96:43 0.3933
58 inst_119:RN 0.2244
59 net_96:44 0.3119
60 net_96:45 0.4918
61 net_96:46 0.3583
62 inst_116:RN 0.0251
*RES
2 TAUGATE_207:Z net_96:1 0.3648
3 net_96:1 net_96:2 0.4404
4 net_96:2 net_96:3 0.3187
5 net_96:3 inst_124:RN 0.4272
6 net_96:2 net_96:4 0.3510
7 net_96:4 net_96:5 0.1182
8 net_96:5 inst_114:RN 0.2614
9 net_96:2 net_96:6 0.3950
10 net_96:6 net_96:7 0.2666
11 net_96:7 net_96:8 0.4255
12 net_96:8 inst_123:RN 0.4671
13 net_96:7 net_96:9 0.3795
14 net_96:9 net_96:10 0.2362
15 net_96:10 net_96:11 0.1908
16 net_96:11 net_96:12 0.1996
17 net_96:12 net_96:13 0.3123
18 net_96:13 inst_121:RN 0.1251
19 net_96:1 net_96:14 0.0063
20 net_96:14 net_96:15 0.4904
21 net_96:15 net_96:16 0.0915
22 net_96:16 net_96:17 0.4619
23 net_96:17 inst_118:RN 0.1065
24 net_96:7 net_96:18 0.0281
25 net_96:18 net_96:19 0.1011
26 net_96:19 net_96:20 0.2539
27 net_96:20 inst_115:RN 0.0765
28 net_96:8 net_96:21 0.3295
29 net_96:21 net_96:22 0.4724
30 net_96:22 net_96:23 0.4631
31 net_96:23 net_96:24 0.0407
32 net_96:24 inst_112:RN 0.4130
33 net_96:10 net_96:25 0.2489
34 net_96:25 net_96:26 0.2584
35 net_96:26 net_96:27 0.0346
36 net_96:27 inst_122:RN 0.4333
37 net_96:19 net_96:28 0.4228
38 net_96:28 net_96:29 0.1417
39 net_96:29 net_96:30 0.3754
40 net_96:30 net_96:31 0.2016
41 net_96:31 net_96:32 0.0068
42 net_96:32 inst_125:RN 0.2001
43 net_96:14 net_96:33 0.4042
44 net_96:33 net_96:34 0.0451
45 net_96:34 net_96:35 0.2391
46 net_96:35 inst_113:RN 0.0321
47 net_96:30 net_96:36 0.4797
48 net_96:36 inst_111:RN 0.0551
49 net_96:7 net_96:37 0.2766
50 net_96:37 net_96:38 0.3086
51 net_96:38 net_96:39 0.2353
52 net_96:39 net_96:40 0.4838
53 net_96:40 net_96:41 0.0722
54 net_96:41 inst_117:RN 0.3539
55 net_96:29 net_96:42 0.3681
56 net_96:42 inst_120:RN 0.4419
57 net_96:11 net_96:43 0.4154
58 net_96:43 inst_119:RN 0.1374