*SPEF "IEEE 1481-1998"
*DESIGN "changes"
*DATE "Tue Dec 02 20:02:48 2014"
*VENDOR "TAU 2015 Contest"
*PROGRAM "Benchmark Parasitic Generator"
*VERSION "0.0"
*DESIGN_FLOW "NETLIST_TYPE_VERILOG"
*DIVIDER /
*DELIMITER :
*BUS_DELIMITER [ ]
*T_UNIT 1 PS
*C_UNIT 1 FF
*R_UNIT 1 KOHM
*L_UNIT 1 UH

*D_NET net_107 1.7439
*CONN
*I inst_21:ZN O
*I inst_23:A1 I
*CAP
1 inst_21:ZN 0.2611
2 net_107:1 0.4098
3 net_107:2 0.5009
4 net_107:3 0.2843
5 inst_23:A1 0.2878
*RES
2 inst_21:ZN net_107:1 0.1659
3 net_107:1 net_107:2 0.2742
4 net_107:2 net_107:3 0.3494
5 net_107:3 inst_23:A1 0.1485
*END

*D_NET net_47 3.1207
*CONN
*I inst_37:ZN O
*I inst_17:A2 I
*I inst_9:A2 I
*I inst_45:A2 I
*CAP
1 inst_37:ZN 0.2110
2 net_47:1 0.3070
3 net_47:2 0.3583
4 net_47:3 0.1395
5 net_47:4 0.0646
6 net_47:5 0.0794
7 inst_9:A2 0.2161
8 net_47:6 0.2440
9 net_47:7 0.0332
10 inst_17:A2 0.0406
11 net_47:8 0.3706
12 net_47:9 0.0740
13 net_47:10 0.4871
14 inst_45:A2 0.4951
*RES
2 inst_37:ZN net_47:1 0.1614
3 net_47:1 net_47:2 0.3312
4 net_47:2 net_47:3 0.3755
5 net_47:3 net_47:4 0.4644
6 net_47:4 net_47:5 0.4559
7 net_47:5 inst_9:A2 0.4050
8 net_47:2 net_47:6 0.2732
9 net_47:6 net_47:7 0.0073
10 net_47:7 inst_17:A2 0.1308
11 net_47:2 net_47:8 0.4125
12 net_47:8 net_47:9 0.0565
13 net_47:9 net_47:10 0.1285
14 net_47:10 inst_45:A2 0.0292
*END

*D_NET P2 3.6718
*CONN
*I inst_119:QN O
*P P2 O
*I inst_42:A1 I
*I inst_69:B I
*CAP
1 inst_119:QN 0.4507
2 P2:1 0.3995
3 P2:2 0.3845
4 P2:3 0.4708
5 P2:4 0.3056
6 inst_42:A1 0.3464
7 P2:5 0.3276
8 P2 0.3833
9 P2:6 0.2805
10 P2:7 0.1322
11 inst_69:B 0.1905
*RES
2 inst_119:QN P2:1 0.0305
3 P2:1 P2:2 0.2383
4 P2:2 P2:3 0.4020
5 P2:3 P2:4 0.2529
6 P2:4 inst_42:A1 0.2665
7 P2:2 P2:5 0.3292
8 P2:5 P2 0.0716
9 P2:3 P2:6 0.4017
10 P2:6 P2:7 0.4680
11 P2:7 inst_69:B 0.2976
*END

*D_NET net_61 1.4553
*CONN
*I inst_53:ZN O
*I inst_22:A1 I
*CAP
1 inst_53:ZN 0.2927
2 net_61:1 0.2211
3 net_61:2 0.1955
4 net_61:3 0.1868
5 net_61:4 0.4889
6 inst_22:A1 0.0703
*RES
2 inst_53:ZN net_61:1 0.3298
3 net_61:1 net_61:2 0.4131
4 net_61:2 net_61:3 0.3310
5 net_61:3 net_61:4 0.2621
6 net_61:4 inst_22:A1 0.4792
*END

*D_NET net_54 1.1591
*CONN
*I inst_14:ZN O
*I inst_63:A1 I
*CAP
1 inst_14:ZN 0.0717
2 net_54:1 0.4035
3 net_54:2 0.0219
4 net_54:3 0.0830
5 net_54:4 0.4539
6 inst_63:A1 0.1250
*RES
2 inst_14:ZN net_54:1 0.3196
3 net_54:1 net_54:2 0.4976
4 net_54:2 net_54:3 0.3591
5 net_54:3 net_54:4 0.2780
6 net_54:4 inst_63:A1 0.2022
*END

*D_NET net_91 17.3012
*CONN
*I inst_27:ZN O
*I inst_19:A2 I
*I inst_70:S I
*I inst_62:A1 I
*I inst_57:A2 I
*I inst_69:S I
*I inst_71:S I
*I inst_21:A2 I
*I inst_16:A2 I
*I inst_52:A2 I
*I inst_59:A1 I
*I inst_51:A2 I
*I inst_53:A2 I
*I inst_54:A2 I
*CAP
1 inst_27:ZN 0.4382
2 net_91:1 0.4055
3 net_91:2 0.4519
4 net_91:3 0.4658
5 net_91:4 0.3690
6 inst_69:S 0.4019
7 net_91:5 0.1782
8 net_91:6 0.4734
9 net_91:7 0.0376
10 net_91:8 0.0972
11 net_91:9 0.3594
12 inst_70:S 0.0525
13 net_91:10 0.4670
14 net_91:11 0.1921
15 net_91:12 0.1376
16 inst_62:A1 0.4443
17 net_91:13 0.4814
18 net_91:14 0.1341
19 net_91:15 0.3915
20 net_91:16 0.0282
21 inst_57:A2 0.3089
22 net_91:17 0.3643
23 net_91:18 0.2288
24 net_91:19 0.0666
25 inst_19:A2 0.3854
26 net_91:20 0.2154
27 net_91:21 0.4921
28 net_91:22 0.1648
29 inst_71:S 0.1855
30 net_91:23 0.1620
31 net_91:24 0.0029
32 net_91:25 0.2883
33 net_91:26 0.1903
34 inst_21:A2 0.4381
35 net_91:27 0.4104
36 inst_16:A2 0.0649
37 net_91:28 0.1076
38 net_91:29 0.4606
39 net_91:30 0.3388
40 net_91:31 0.4657
41 net_91:32 0.3595
42 inst_52:A2 0.2471
43 net_91:33 0.3877
44 net_91:34 0.3882
45 net_91:35 0.4950
46 net_91:36 0.0413
47 net_91:37 0.4651
48 inst_59:A1 0.4065
49 net_91:38 0.2195
50 net_91:39 0.1533
51 net_91:40 0.4091
52 inst_51:A2 0.2613
53 net_91:41 0.1210
54 net_91:42 0.1733
55 net_91:43 0.1014
56 net_91:44 0.0283
57 net_91:45 0.2763
58 inst_53:A2 0.2945
59 net_91:46 0.2821
60 net_91:47 0.3900
61 net_91:48 0.0557
62 net_91:49 0.1253
63 inst_54:A2 0.2716
*RES
2 inst_27:ZN net_91:1 0.0632
3 net_91:1 net_91:2 0.2503
4 net_91:2 net_91:3 0.4700
5 net_91:3 net_91:4 0.3789
6 net_91:4 inst_69:S 0.3545
7 net_91:1 net_91:5 0.3248
8 net_91:5 net_91:6 0.2597
9 net_91:6 net_91:7 0.1267
10 net_91:7 net_91:8 0.3840
11 net_91:8 net_91:9 0.2434
12 net_91:9 inst_70:S 0.3726
13 net_91:6 net_91:10 0.1288
14 net_91:10 net_91:11 0.3022
15 net_91:11 net_91:12 0.1405
16 net_91:12 inst_62:A1 0.0668
17 net_91:11 net_91:13 0.0253
18 net_91:13 net_91:14 0.3105
19 net_91:14 net_91:15 0.1881
20 net_91:15 net_91:16 0.2034
21 net_91:16 inst_57:A2 0.1592
22 net_91:11 net_91:17 0.3580
23 net_91:17 net_91:18 0.3774
24 net_91:18 net_91:19 0.2731
25 net_91:19 inst_19:A2 0.1525
26 net_91:2 net_91:20 0.0112
27 net_91:20 net_91:21 0.3530
28 net_91:21 net_91:22 0.1128
29 net_91:22 inst_71:S 0.2239
30 net_91:7 net_91:23 0.3484
31 net_91:23 net_91:24 0.0801
32 net_91:24 net_91:25 0.1392
33 net_91:25 net_91:26 0.1891
34 net_91:26 inst_21:A2 0.0464
35 net_91:2 net_91:27 0.0510
36 net_91:27 inst_16:A2 0.1600
37 net_91:10 net_91:28 0.0832
38 net_91:28 net_91:29 0.0580
39 net_91:29 net_91:30 0.3736
40 net_91:30 net_91:31 0.0395
41 net_91:31 net_91:32 0.3644
42 net_91:32 inst_52:A2 0.0829
43 net_91:13 net_91:33 0.3164
44 net_91:33 net_91:34 0.3513
45 net_91:34 net_91:35 0.1165
46 net_91:35 net_91:36 0.0986
47 net_91:36 net_91:37 0.2243
48 net_91:37 inst_59:A1 0.1286
49 net_91:32 net_91:38 0.3587
50 net_91:38 net_91:39 0.1869
51 net_91:39 net_91:40 0.4974
52 net_91:40 inst_51:A2 0.3047
53 net_91:10 net_91:41 0.3177
54 net_91:41 net_91:42 0.2101
55 net_91:42 net_91:43 0.3390
56 net_91:43 net_91:44 0.2046
57 net_91:44 net_91:45 0.3404
58 net_91:45 inst_53:A2 0.1317
59 net_91:8 net_91:46 0.3735
60 net_91:46 net_91:47 0.1079
61 net_91:47 net_91:48 0.3323
62 net_91:48 net_91:49 0.2907
63 net_91:49 inst_54:A2 0.0362
*END

*D_NET net_105 1.0331
*CONN
*I inst_34:ZN O
*I inst_21:A1 I
*CAP
1 inst_34:ZN 0.4101
2 net_105:1 0.2135
3 net_105:2 0.0419
4 net_105:3 0.2773
5 inst_21:A1 0.0903
*RES
2 inst_34:ZN net_105:1 0.0485
3 net_105:1 net_105:2 0.4602
4 net_105:2 net_105:3 0.4262
5 net_105:3 inst_21:A1 0.2009
*END

*D_NET P3 3.8187
*CONN
*I inst_121:QN O
*P P3 O
*I inst_70:B I
*I inst_41:A1 I
*CAP
1 inst_121:QN 0.3090
2 P3:1 0.4228
3 P3:2 0.2443
4 P3:3 0.2458
5 P3:4 0.3734
6 inst_70:B 0.1567
7 P3:5 0.0169
8 P3:6 0.4026
9 P3:7 0.4684
10 P3:8 0.2490
11 P3 0.0579
12 P3:9 0.0209
13 P3:10 0.4380
14 inst_41:A1 0.4130
*RES
2 inst_121:QN P3:1 0.1247
3 P3:1 P3:2 0.2439
4 P3:2 P3:3 0.2588
5 P3:3 P3:4 0.4474
6 P3:4 inst_70:B 0.3528
7 P3:2 P3:5 0.0423
8 P3:5 P3:6 0.2861
9 P3:6 P3:7 0.4278
10 P3:7 P3:8 0.3875
11 P3:8 P3 0.4796
12 P3:7 P3:9 0.4990
13 P3:9 P3:10 0.2134
14 P3:10 inst_41:A1 0.1115
*END

*D_NET net_106 1.6629
*CONN
*I inst_61:ZN O
*I inst_21:A3 I
*CAP
1 inst_61:ZN 0.3666
2 net_106:1 0.4464
3 net_106:2 0.2438
4 net_106:3 0.2969
5 inst_21:A3 0.3091
*RES
2 inst_61:ZN net_106:1 0.5006
3 net_106:1 net_106:2 0.2264
4 net_106:2 net_106:3 0.3973
5 net_106:3 inst_21:A3 0.2044
*END

*D_NET net_55 1.5866
*CONN
*I inst_10:ZN O
*I inst_112:D I
*CAP
1 inst_10:ZN 0.3886
2 net_55:1 0.2468
3 net_55:2 0.4002
4 net_55:3 0.3652
5 inst_112:D 0.1857
*RES
2 inst_10:ZN net_55:1 0.0562
3 net_55:1 net_55:2 0.0882
4 net_55:2 net_55:3 0.4386
5 net_55:3 inst_112:D 0.2715
*END

*D_NET net_99 0.8240
*CONN
*I inst_44:ZN O
*I inst_29:A2 I
*CAP
1 inst_44:ZN 0.4145
2 net_99:1 0.1130
3 net_99:2 0.1026
4 inst_29:A2 0.1939
*RES
2 inst_44:ZN net_99:1 0.1095
3 net_99:1 net_99:2 0.0212
4 net_99:2 inst_29:A2 0.1417
*END

*D_NET net_46 1.5062
*CONN
*I inst_128:ZN O
*I inst_111:D I
*CAP
1 inst_128:ZN 0.4826
2 net_46:1 0.4033
3 net_46:2 0.3663
4 inst_111:D 0.2540
*RES
2 inst_128:ZN net_46:1 0.0526
3 net_46:1 net_46:2 0.2388
4 net_46:2 inst_111:D 0.1787
*END

*D_NET net_98 0.4944
*CONN
*I inst_28:ZN O
*I inst_29:A1 I
*CAP
1 inst_28:ZN 0.0603
2 net_98:1 0.3102
3 inst_29:A1 0.1239
*RES
2 inst_28:ZN net_98:1 0.2473
3 net_98:1 inst_29:A1 0.0055
*END

*D_NET net_23 2.5788
*CONN
*I inst_116:QN O
*I inst_35:A1 I
*I inst_66:B I
*CAP
1 inst_116:QN 0.2412
2 net_23:1 0.4441
3 net_23:2 0.4218
4 net_23:3 0.0848
5 net_23:4 0.0266
6 inst_66:B 0.0274
7 net_23:5 0.4317
8 net_23:6 0.1801
9 net_23:7 0.2826
10 net_23:8 0.3420
11 inst_35:A1 0.0965
*RES
2 inst_116:QN net_23:1 0.4218
3 net_23:1 net_23:2 0.2061
4 net_23:2 net_23:3 0.2110
5 net_23:3 net_23:4 0.4583
6 net_23:4 inst_66:B 0.3985
7 net_23:3 net_23:5 0.2555
8 net_23:5 net_23:6 0.1304
9 net_23:6 net_23:7 0.3675
10 net_23:7 net_23:8 0.4634
11 net_23:8 inst_35:A1 0.2869
*END

*D_NET P5 4.0262
*CONN
*I inst_123:QN O
*P P5 O
*I inst_2:A2 I
*I inst_44:A2 I
*I inst_51:A1 I
*I inst_14:A2 I
*I inst_43:A1 I
*CAP
1 inst_123:QN 0.1182
2 P5:1 0.0608
3 inst_2:A2 0.3721
4 P5:2 0.0264
5 P5:3 0.2502
6 P5 0.2506
7 P5:4 0.1704
8 P5:5 0.2303
9 P5:6 0.0121
10 inst_44:A2 0.0620
11 P5:7 0.3195
12 P5:8 0.4748
13 P5:9 0.2505
14 P5:10 0.2036
15 P5:11 0.3990
16 inst_51:A1 0.0185
17 P5:12 0.0406
18 P5:13 0.0917
19 P5:14 0.0078
20 inst_14:A2 0.0227
21 P5:15 0.3987
22 P5:16 0.0209
23 P5:17 0.1182
24 inst_43:A1 0.1067
*RES
2 inst_123:QN P5:1 0.4648
3 P5:1 inst_2:A2 0.2376
4 P5:1 P5:2 0.4486
5 P5:2 P5:3 0.0641
6 P5:3 P5 0.0138
7 P5:1 P5:4 0.0267
8 P5:4 P5:5 0.1278
9 P5:5 P5:6 0.1079
10 P5:6 inst_44:A2 0.3621
11 P5:4 P5:7 0.3777
12 P5:7 P5:8 0.2437
13 P5:8 P5:9 0.3641
14 P5:9 P5:10 0.1411
15 P5:10 P5:11 0.2452
16 P5:11 inst_51:A1 0.2723
17 P5:4 P5:12 0.0264
18 P5:12 P5:13 0.0174
19 P5:13 P5:14 0.1906
20 P5:14 inst_14:A2 0.1553
21 P5:2 P5:15 0.4881
22 P5:15 P5:16 0.3672
23 P5:16 P5:17 0.4629
24 P5:17 inst_43:A1 0.1157
*END

*D_NET P7 6.1598
*CONN
*I inst_124:QN O
*P P7 O
*I inst_53:A1 I
*I inst_17:A3 I
*I inst_9:A1 I
*I inst_45:A1 I
*CAP
1 inst_124:QN 0.2138
2 P7:1 0.2979
3 P7:2 0.3428
4 P7:3 0.2325
5 P7:4 0.2733
6 P7:5 0.1266
7 inst_53:A1 0.3814
8 P7:6 0.1465
9 P7:7 0.1463
10 P7:8 0.4621
11 P7:9 0.4065
12 P7:10 0.0227
13 P7 0.2236
14 P7:11 0.1222
15 inst_17:A3 0.0613
16 P7:12 0.2603
17 P7:13 0.2874
18 P7:14 0.3072
19 inst_9:A1 0.2768
20 P7:15 0.2138
21 P7:16 0.4796
22 P7:17 0.3806
23 inst_45:A1 0.4946
*RES
2 inst_124:QN P7:1 0.1363
3 P7:1 P7:2 0.3277
4 P7:2 P7:3 0.3144
5 P7:3 P7:4 0.4503
6 P7:4 P7:5 0.3676
7 P7:5 inst_53:A1 0.1603
8 P7:1 P7:6 0.4114
9 P7:6 P7:7 0.0715
10 P7:7 P7:8 0.1546
11 P7:8 P7:9 0.1861
12 P7:9 P7:10 0.4367
13 P7:10 P7 0.3452
14 P7:3 P7:11 0.1692
15 P7:11 inst_17:A3 0.4407
16 P7:6 P7:12 0.1679
17 P7:12 P7:13 0.2053
18 P7:13 P7:14 0.2140
19 P7:14 inst_9:A1 0.3306
20 P7:5 P7:15 0.4608
21 P7:15 P7:16 0.4692
22 P7:16 P7:17 0.4766
23 P7:17 inst_45:A1 0.0589
*END

*D_NET net_117 0.9251
*CONN
*I inst_19:ZN O
*I inst_20:A2 I
*CAP
1 inst_19:ZN 0.2415
2 net_117:1 0.4103
3 net_117:2 0.0845
4 inst_20:A2 0.1888
*RES
2 inst_19:ZN net_117:1 0.1436
3 net_117:1 net_117:2 0.1762
4 net_117:2 inst_20:A2 0.4748
*END

*D_NET B1 1.1069
*CONN
*P B1 I
*I inst_6:A1 I
*CAP
1 B1 0.0407
2 B1:1 0.0491
3 B1:2 0.4137
4 B1:3 0.3046
5 inst_6:A1 0.2987
*RES
2 B1 B1:1 0.2640
3 B1:1 B1:2 0.1831
4 B1:2 B1:3 0.4110
5 B1:3 inst_6:A1 0.0191
*END

*D_NET net_104 1.9101
*CONN
*I inst_45:ZN O
*I inst_33:A2 I
*CAP
1 inst_45:ZN 0.4300
2 net_104:1 0.0787
3 net_104:2 0.2007
4 net_104:3 0.2971
5 net_104:4 0.4025
6 inst_33:A2 0.5010
*RES
2 inst_45:ZN net_104:1 0.3538
3 net_104:1 net_104:2 0.4649
4 net_104:2 net_104:3 0.0482
5 net_104:3 net_104:4 0.1062
6 net_104:4 inst_33:A2 0.2963
*END

*D_NET net_74 1.3534
*CONN
*I inst_11:ZN O
*I inst_117:D I
*CAP
1 inst_11:ZN 0.2002
2 net_74:1 0.3761
3 net_74:2 0.0616
4 net_74:3 0.4298
5 inst_117:D 0.2857
*RES
2 inst_11:ZN net_74:1 0.2634
3 net_74:1 net_74:2 0.0470
4 net_74:2 net_74:3 0.0745
5 net_74:3 inst_117:D 0.1738
*END

*D_NET net_53 0.9060
*CONN
*I inst_50:ZN O
*I inst_69:A I
*CAP
1 inst_50:ZN 0.4556
2 net_53:1 0.0036
3 net_53:2 0.1731
4 inst_69:A 0.2737
*RES
2 inst_50:ZN net_53:1 0.3095
3 net_53:1 net_53:2 0.4895
4 net_53:2 inst_69:A 0.4033
*END

*D_NET net_93 1.7738
*CONN
*I inst_20:ZN O
*I inst_123:D I
*CAP
1 inst_20:ZN 0.3461
2 net_93:1 0.0418
3 net_93:2 0.3671
4 net_93:3 0.3815
5 net_93:4 0.1458
6 inst_123:D 0.4915
*RES
2 inst_20:ZN net_93:1 0.0683
3 net_93:1 net_93:2 0.2135
4 net_93:2 net_93:3 0.4484
5 net_93:3 net_93:4 0.1379
6 net_93:4 inst_123:D 0.1139
*END

*D_NET net_25 1.0254
*CONN
*I inst_36:ZN O
*I inst_46:A2 I
*CAP
1 inst_36:ZN 0.0861
2 net_25:1 0.4806
3 net_25:2 0.3473
4 inst_46:A2 0.1114
*RES
2 inst_36:ZN net_25:1 0.0198
3 net_25:1 net_25:2 0.2366
4 net_25:2 inst_46:A2 0.1100
*END

*D_NET net_70 1.2760
*CONN
*I inst_68:Z O
*I inst_115:D I
*CAP
1 inst_68:Z 0.3290
2 net_70:1 0.4236
3 net_70:2 0.3328
4 inst_115:D 0.1906
*RES
2 inst_68:Z net_70:1 0.5003
3 net_70:1 net_70:2 0.4347
4 net_70:2 inst_115:D 0.3044
*END

*D_NET P4 4.3449
*CONN
*I inst_122:QN O
*P P4 O
*I inst_52:A1 I
*I inst_46:A1 I
*I inst_127:A2 I
*CAP
1 inst_122:QN 0.0096
2 P4:1 0.2377
3 P4:2 0.2571
4 P4:3 0.3610
5 P4:4 0.0042
6 P4:5 0.2690
7 inst_52:A1 0.3841
8 P4:6 0.0621
9 P4:7 0.2122
10 P4:8 0.2034
11 P4:9 0.1253
12 P4:10 0.2112
13 P4 0.2343
14 P4:11 0.0383
15 inst_46:A1 0.2939
16 P4:12 0.2308
17 P4:13 0.1825
18 P4:14 0.4154
19 P4:15 0.4205
20 inst_127:A2 0.1921
*RES
2 inst_122:QN P4:1 0.3400
3 P4:1 P4:2 0.2352
4 P4:2 P4:3 0.3112
5 P4:3 P4:4 0.1345
6 P4:4 P4:5 0.4134
7 P4:5 inst_52:A1 0.0741
8 P4:5 P4:6 0.1106
9 P4:6 P4:7 0.0283
10 P4:7 P4:8 0.2644
11 P4:8 P4:9 0.3395
12 P4:9 P4:10 0.4160
13 P4:10 P4 0.1311
14 P4:4 P4:11 0.2177
15 P4:11 inst_46:A1 0.0520
16 P4:5 P4:12 0.3303
17 P4:12 P4:13 0.0500
18 P4:13 P4:14 0.3450
19 P4:14 P4:15 0.2552
20 P4:15 inst_127:A2 0.2397
*END

*D_NET net_52 1.0541
*CONN
*I inst_49:ZN O
*I inst_70:A I
*CAP
1 inst_49:ZN 0.0450
2 net_52:1 0.1804
3 net_52:2 0.2132
4 net_52:3 0.3448
5 net_52:4 0.2539
6 inst_70:A 0.0169
*RES
2 inst_49:ZN net_52:1 0.2910
3 net_52:1 net_52:2 0.3418
4 net_52:2 net_52:3 0.0277
5 net_52:3 net_52:4 0.2232
6 net_52:4 inst_70:A 0.0700
*END

*D_NET net_14 2.8028
*CONN
*I inst_112:QN O
*I inst_8:A1 I
*I inst_12:A2 I
*I inst_0:B I
*I inst_13:A3 I
*CAP
1 inst_112:QN 0.4916
2 net_14:1 0.0722
3 inst_13:A3 0.0268
4 net_14:2 0.2720
5 net_14:3 0.0605
6 inst_12:A2 0.1555
7 net_14:4 0.2983
8 net_14:5 0.4269
9 net_14:6 0.0493
10 net_14:7 0.0341
11 inst_0:B 0.3020
12 net_14:8 0.2956
13 net_14:9 0.2210
14 inst_8:A1 0.0970
*RES
2 inst_112:QN net_14:1 0.0274
3 net_14:1 inst_13:A3 0.0955
4 net_14:1 net_14:2 0.4347
5 net_14:2 net_14:3 0.2976
6 net_14:3 inst_12:A2 0.3531
7 net_14:2 net_14:4 0.3389
8 net_14:4 net_14:5 0.4000
9 net_14:5 net_14:6 0.0188
10 net_14:6 net_14:7 0.4709
11 net_14:7 inst_0:B 0.4204
12 net_14:4 net_14:8 0.2798
13 net_14:8 net_14:9 0.3150
14 net_14:9 inst_8:A1 0.0137
*END

*D_NET P1 4.1192
*CONN
*I inst_118:QN O
*P P1 O
*I inst_40:A1 I
*I inst_57:A1 I
*CAP
1 inst_118:QN 0.3101
2 P1:1 0.2047
3 inst_40:A1 0.3729
4 P1:2 0.3083
5 P1:3 0.1250
6 P1:4 0.3526
7 P1:5 0.3715
8 P1 0.3144
9 P1:6 0.3118
10 P1:7 0.4981
11 P1:8 0.3134
12 P1:9 0.4059
13 P1:10 0.1396
14 inst_57:A1 0.0910
*RES
2 inst_118:QN P1:1 0.0610
3 P1:1 inst_40:A1 0.4010
4 P1:1 P1:2 0.3618
5 P1:2 P1:3 0.0820
6 P1:3 P1:4 0.2174
7 P1:4 P1:5 0.3638
8 P1:5 P1 0.4097
9 P1:2 P1:6 0.1278
10 P1:6 P1:7 0.3093
11 P1:7 P1:8 0.3342
12 P1:8 P1:9 0.2150
13 P1:9 P1:10 0.0109
14 P1:10 inst_57:A1 0.1830
*END

*D_NET net_26 1.8312
*CONN
*I inst_113:QN O
*I inst_37:A1 I
*I inst_65:B I
*CAP
1 inst_113:QN 0.0712
2 net_26:1 0.1986
3 inst_37:A1 0.0476
4 net_26:2 0.2677
5 net_26:3 0.2426
6 net_26:4 0.1466
7 net_26:5 0.2784
8 net_26:6 0.2008
9 inst_65:B 0.3776
*RES
2 inst_113:QN net_26:1 0.0521
3 net_26:1 inst_37:A1 0.0546
4 net_26:1 net_26:2 0.2937
5 net_26:2 net_26:3 0.0093
6 net_26:3 net_26:4 0.2822
7 net_26:4 net_26:5 0.4311
8 net_26:5 net_26:6 0.0309
9 net_26:6 inst_65:B 0.1138
*END

*D_NET net_113 4.2487
*CONN
*I inst_25:ZN O
*I inst_2:A3 I
*I inst_44:A1 I
*I inst_14:A1 I
*I inst_43:A2 I
*CAP
1 inst_25:ZN 0.3567
2 net_113:1 0.2336
3 net_113:2 0.3863
4 net_113:3 0.2365
5 net_113:4 0.1037
6 inst_43:A2 0.3572
7 net_113:5 0.4262
8 net_113:6 0.3737
9 net_113:7 0.3015
10 inst_44:A1 0.1830
11 net_113:8 0.4263
12 inst_14:A1 0.2912
13 net_113:9 0.0984
14 net_113:10 0.0368
15 inst_2:A3 0.4376
*RES
2 inst_25:ZN net_113:1 0.2211
3 net_113:1 net_113:2 0.2185
4 net_113:2 net_113:3 0.2266
5 net_113:3 net_113:4 0.2538
6 net_113:4 inst_43:A2 0.1297
7 net_113:2 net_113:5 0.3035
8 net_113:5 net_113:6 0.4053
9 net_113:6 net_113:7 0.0863
10 net_113:7 inst_44:A1 0.2362
11 net_113:2 net_113:8 0.1111
12 net_113:8 inst_14:A1 0.3711
13 net_113:1 net_113:9 0.1423
14 net_113:9 net_113:10 0.1283
15 net_113:10 inst_2:A3 0.1146
*END

*D_NET net_76 2.0583
*CONN
*I inst_69:Z O
*I inst_118:D I
*CAP
1 inst_69:Z 0.4610
2 net_76:1 0.2776
3 net_76:2 0.3781
4 net_76:3 0.3766
5 net_76:4 0.0185
6 net_76:5 0.3877
7 inst_118:D 0.1588
*RES
2 inst_69:Z net_76:1 0.3738
3 net_76:1 net_76:2 0.4556
4 net_76:2 net_76:3 0.1835
5 net_76:3 net_76:4 0.0020
6 net_76:4 net_76:5 0.2614
7 net_76:5 inst_118:D 0.3010
*END

*D_NET net_101 1.0435
*CONN
*I inst_30:ZN O
*I inst_31:A1 I
*CAP
1 inst_30:ZN 0.4372
2 net_101:1 0.1153
3 net_101:2 0.3810
4 inst_31:A1 0.1100
*RES
2 inst_30:ZN net_101:1 0.1662
3 net_101:1 net_101:2 0.3178
4 net_101:2 inst_31:A1 0.2541
*END

*D_NET net_94 7.1771
*CONN
*P START I
*I inst_20:A3 I
*I inst_22:A2 I
*I inst_18:A2 I
*I inst_128:A1 I
*I inst_23:A2 I
*I inst_11:A1 I
*I inst_10:A1 I
*CAP
1 START 0.4625
2 net_94:1 0.0981
3 net_94:2 0.3461
4 net_94:3 0.2382
5 inst_128:A1 0.4109
6 net_94:4 0.2455
7 inst_22:A2 0.1970
8 net_94:5 0.3283
9 inst_18:A2 0.2266
10 net_94:6 0.1317
11 net_94:7 0.1481
12 net_94:8 0.2485
13 net_94:9 0.2201
14 inst_20:A3 0.2966
15 net_94:10 0.3805
16 net_94:11 0.2523
17 net_94:12 0.0497
18 inst_23:A2 0.4938
19 net_94:13 0.4364
20 net_94:14 0.2454
21 net_94:15 0.4527
22 net_94:16 0.2663
23 inst_11:A1 0.3641
24 net_94:17 0.0859
25 net_94:18 0.1706
26 inst_10:A1 0.3812
*RES
2 START net_94:1 0.0945
3 net_94:1 net_94:2 0.2326
4 net_94:2 net_94:3 0.0121
5 net_94:3 inst_128:A1 0.2674
6 net_94:2 net_94:4 0.0138
7 net_94:4 inst_22:A2 0.4527
8 net_94:4 net_94:5 0.4199
9 net_94:5 inst_18:A2 0.3736
10 net_94:4 net_94:6 0.3013
11 net_94:6 net_94:7 0.0758
12 net_94:7 net_94:8 0.0262
13 net_94:8 net_94:9 0.3812
14 net_94:9 inst_20:A3 0.0656
15 net_94:3 net_94:10 0.3913
16 net_94:10 net_94:11 0.2131
17 net_94:11 net_94:12 0.3201
18 net_94:12 inst_23:A2 0.0320
19 net_94:6 net_94:13 0.1740
20 net_94:13 net_94:14 0.2701
21 net_94:14 net_94:15 0.3351
22 net_94:15 net_94:16 0.4105
23 net_94:16 inst_11:A1 0.3004
24 net_94:12 net_94:17 0.0751
25 net_94:17 net_94:18 0.1227
26 net_94:18 inst_10:A1 0.0294
*END

*D_NET net_111 2.1109
*CONN
*I inst_55:ZN O
*I inst_30:A2 I
*CAP
1 inst_55:ZN 0.3552
2 net_111:1 0.1840
3 net_111:2 0.4010
4 net_111:3 0.3573
5 net_111:4 0.4559
6 inst_30:A2 0.3575
*RES
2 inst_55:ZN net_111:1 0.1715
3 net_111:1 net_111:2 0.3050
4 net_111:2 net_111:3 0.3594
5 net_111:3 net_111:4 0.4902
6 net_111:4 inst_30:A2 0.4716
*END

*D_NET net_90 1.0019
*CONN
*I inst_33:ZN O
*I inst_62:A2 I
*I inst_34:A1 I
*CAP
1 inst_33:ZN 0.1762
2 net_90:1 0.1660
3 net_90:2 0.2177
4 inst_62:A2 0.2908
5 net_90:3 0.0053
6 inst_34:A1 0.1459
*RES
2 inst_33:ZN net_90:1 0.3318
3 net_90:1 net_90:2 0.3308
4 net_90:2 inst_62:A2 0.4080
5 net_90:1 net_90:3 0.0437
6 net_90:3 inst_34:A1 0.4598
*END

*D_NET net_40 1.9374
*CONN
*I inst_5:ZN O
*I inst_49:A1 I
*CAP
1 inst_5:ZN 0.2033
2 net_40:1 0.4574
3 net_40:2 0.4683
4 net_40:3 0.1543
5 net_40:4 0.4873
6 inst_49:A1 0.1669
*RES
2 inst_5:ZN net_40:1 0.4800
3 net_40:1 net_40:2 0.4518
4 net_40:2 net_40:3 0.0570
5 net_40:3 net_40:4 0.4909
6 net_40:4 inst_49:A1 0.0572
*END

*D_NET net_100 1.5455
*CONN
*I inst_127:ZN O
*I inst_26:A1 I
*CAP
1 inst_127:ZN 0.1013
2 net_100:1 0.4210
3 net_100:2 0.2594
4 net_100:3 0.3565
5 inst_26:A1 0.4074
*RES
2 inst_127:ZN net_100:1 0.4309
3 net_100:1 net_100:2 0.4474
4 net_100:2 net_100:3 0.2931
5 net_100:3 inst_26:A1 0.2848
*END

*D_NET net_18 8.5948
*CONN
*I inst_125:QN O
*I inst_54:A1 I
*P P6 O
*I inst_15:A2 I
*I inst_24:A1 I
*I inst_58:A1 I
*I inst_55:A2 I
*CAP
1 inst_125:QN 0.3320
2 net_18:1 0.3663
3 net_18:2 0.1512
4 net_18:3 0.1368
5 net_18:4 0.4493
6 inst_15:A2 0.4663
7 net_18:5 0.3075
8 net_18:6 0.0604
9 P6 0.3908
10 net_18:7 0.3010
11 net_18:8 0.1515
12 net_18:9 0.0492
13 inst_54:A1 0.2707
14 net_18:10 0.3648
15 net_18:11 0.4404
16 net_18:12 0.3187
17 net_18:13 0.4272
18 net_18:14 0.0224
19 inst_24:A1 0.4026
20 net_18:15 0.1530
21 net_18:16 0.2582
22 net_18:17 0.4484
23 inst_58:A1 0.0762
24 net_18:18 0.2972
25 net_18:19 0.3936
26 net_18:20 0.4880
27 net_18:21 0.4169
28 net_18:22 0.3167
29 inst_55:A2 0.3376
*RES
2 inst_125:QN net_18:1 0.2866
3 net_18:1 net_18:2 0.1873
4 net_18:2 net_18:3 0.1599
5 net_18:3 net_18:4 0.3589
6 net_18:4 inst_15:A2 0.4697
7 net_18:3 net_18:5 0.2921
8 net_18:5 net_18:6 0.4162
9 net_18:6 P6 0.1285
10 net_18:5 net_18:7 0.0711
11 net_18:7 net_18:8 0.2365
12 net_18:8 net_18:9 0.0021
13 net_18:9 inst_54:A1 0.2080
14 net_18:7 net_18:10 0.2784
15 net_18:10 net_18:11 0.1803
16 net_18:11 net_18:12 0.0882
17 net_18:12 net_18:13 0.2924
18 net_18:13 net_18:14 0.4780
19 net_18:14 inst_24:A1 0.3510
20 net_18:4 net_18:15 0.1986
21 net_18:15 net_18:16 0.3922
22 net_18:16 net_18:17 0.3950
23 net_18:17 inst_58:A1 0.2666
24 net_18:15 net_18:18 0.1073
25 net_18:18 net_18:19 0.3579
26 net_18:19 net_18:20 0.1300
27 net_18:20 net_18:21 0.3795
28 net_18:21 net_18:22 0.2362
29 net_18:22 inst_55:A2 0.1908
*END

*D_NET net_85 3.7612
*CONN
*I inst_31:ZN O
*I inst_61:A2 I
*I inst_64:A2 I
*I inst_17:A1 I
*I inst_32:A1 I
*CAP
1 inst_31:ZN 0.3123
2 net_85:1 0.0048
3 net_85:2 0.3126
4 inst_64:A2 0.0195
5 net_85:3 0.4038
6 net_85:4 0.1954
7 net_85:5 0.0063
8 net_85:6 0.4904
9 net_85:7 0.0915
10 inst_61:A2 0.4619
11 net_85:8 0.1011
12 inst_17:A1 0.2539
13 net_85:9 0.2766
14 net_85:10 0.4045
15 inst_32:A1 0.4267
*RES
2 inst_31:ZN net_85:1 0.0541
3 net_85:1 net_85:2 0.3700
4 net_85:2 inst_64:A2 0.3260
5 net_85:2 net_85:3 0.1065
6 net_85:3 net_85:4 0.1990
7 net_85:4 net_85:5 0.2576
8 net_85:5 net_85:6 0.0690
9 net_85:6 net_85:7 0.2231
10 net_85:7 inst_61:A2 0.2934
11 net_85:1 net_85:8 0.0765
12 net_85:8 inst_17:A1 0.1980
13 net_85:6 net_85:9 0.4596
14 net_85:9 net_85:10 0.3295
15 net_85:10 inst_32:A1 0.4724
*END

*D_NET CNTVCON2 1.9041
*CONN
*I inst_8:ZN O
*P CNTVCON2 O
*P CNTVCO2 O
*CAP
1 inst_8:ZN 0.0407
2 CNTVCON2:1 0.3462
3 CNTVCON2:2 0.0714
4 CNTVCON2:3 0.2110
5 CNTVCON2:4 0.2588
6 CNTVCON2:5 0.0339
7 CNTVCO2 0.0519
8 CNTVCON2:6 0.1540
9 CNTVCON2:7 0.0325
10 CNTVCON2:8 0.0924
11 CNTVCON2:9 0.1850
12 CNTVCON2:10 0.1516
13 CNTVCON2 0.2746
*RES
2 inst_8:ZN CNTVCON2:1 0.4874
3 CNTVCON2:1 CNTVCON2:2 0.0374
4 CNTVCON2:2 CNTVCON2:3 0.2489
5 CNTVCON2:3 CNTVCON2:4 0.2584
6 CNTVCON2:4 CNTVCON2:5 0.0346
7 CNTVCON2:5 CNTVCO2 0.4333
8 CNTVCON2:4 CNTVCON2:6 0.4228
9 CNTVCON2:6 CNTVCON2:7 0.1417
10 CNTVCON2:7 CNTVCON2:8 0.3754
11 CNTVCON2:8 CNTVCON2:9 0.2016
12 CNTVCON2:9 CNTVCON2:10 0.0068
13 CNTVCON2:10 CNTVCON2 0.2001
*END

*D_NET net_69 1.0932
*CONN
*I inst_67:Z O
*I inst_114:D I
*CAP
1 inst_67:Z 0.4926
2 net_69:1 0.3810
3 inst_114:D 0.2195
*RES
2 inst_67:Z net_69:1 0.2042
3 net_69:1 inst_114:D 0.2030
*END

*D_NET net_29 1.9497
*CONN
*I inst_3:ZN O
*I inst_8:A2 I
*I inst_0:A I
*CAP
1 inst_3:ZN 0.4413
2 net_29:1 0.4042
3 net_29:2 0.0451
4 inst_0:A 0.2391
5 net_29:3 0.4797
6 net_29:4 0.0551
7 net_29:5 0.1877
8 inst_8:A2 0.0973
*RES
2 inst_3:ZN net_29:1 0.0321
3 net_29:1 net_29:2 0.4146
4 net_29:2 inst_0:A 0.0857
5 net_29:2 net_29:3 0.4235
6 net_29:3 net_29:4 0.1903
7 net_29:4 net_29:5 0.2143
8 net_29:5 inst_8:A2 0.0701
*END

*D_NET net_83 1.7676
*CONN
*I inst_24:ZN O
*I inst_64:A1 I
*CAP
1 inst_24:ZN 0.4634
2 net_83:1 0.2766
3 net_83:2 0.3086
4 net_83:3 0.2353
5 inst_64:A1 0.4838
*RES
2 inst_24:ZN net_83:1 0.0722
3 net_83:1 net_83:2 0.3539
4 net_83:2 net_83:3 0.3446
5 net_83:3 inst_64:A1 0.0192
*END

*D_NET net_68 1.5540
*CONN
*I inst_66:Z O
*I inst_116:D I
*CAP
1 inst_66:Z 0.4054
2 net_68:1 0.4419
3 net_68:2 0.1561
4 net_68:3 0.1347
5 net_68:4 0.0224
6 inst_116:D 0.3933
*RES
2 inst_66:Z net_68:1 0.2244
3 net_68:1 net_68:2 0.4154
4 net_68:2 net_68:3 0.1374
5 net_68:3 net_68:4 0.1713
6 net_68:4 inst_116:D 0.2153
*END

*D_NET net_77 1.6905
*CONN
*I inst_70:Z O
*I inst_119:D I
*CAP
1 inst_70:Z 0.4918
2 net_77:1 0.0251
3 net_77:2 0.0071
4 net_77:3 0.2242
5 net_77:4 0.4834
6 inst_119:D 0.4589
*RES
2 inst_70:Z net_77:1 0.0098
3 net_77:1 net_77:2 0.3264
4 net_77:2 net_77:3 0.2846
5 net_77:3 net_77:4 0.4721
6 net_77:4 inst_119:D 0.1185
*END

*D_NET B3 1.2448
*CONN
*P B3 I
*I inst_4:A1 I
*CAP
1 B3 0.3703
2 B3:1 0.4409
3 inst_4:A1 0.4335
*RES
2 B3 B3:1 0.3158
3 B3:1 inst_4:A1 0.2513
*END

*D_NET net_115 6.9621
*CONN
*I inst_120:QN O
*I inst_39:A1 I
*P P0 O
*I inst_37:A2 I
*I inst_127:A1 I
*I inst_25:A2 I
*I inst_35:A2 I
*I inst_36:A2 I
*CAP
1 inst_120:QN 0.1640
2 net_115:1 0.3155
3 net_115:2 0.4909
4 inst_36:A2 0.2285
5 net_115:3 0.2112
6 net_115:4 0.3238
7 P0 0.1536
8 net_115:5 0.0018
9 net_115:6 0.2665
10 net_115:7 0.4580
11 inst_37:A2 0.4392
12 net_115:8 0.2913
13 inst_127:A1 0.3837
14 net_115:9 0.4235
15 net_115:10 0.2000
16 inst_25:A2 0.4330
17 net_115:11 0.2267
18 net_115:12 0.0022
19 net_115:13 0.3986
20 net_115:14 0.0342
21 inst_35:A2 0.1492
22 net_115:15 0.3423
23 net_115:16 0.3091
24 net_115:17 0.3077
25 net_115:18 0.0259
26 inst_39:A1 0.3818
*RES
2 inst_120:QN net_115:1 0.2293
3 net_115:1 net_115:2 0.4514
4 net_115:2 inst_36:A2 0.1489
5 net_115:2 net_115:3 0.2744
6 net_115:3 net_115:4 0.3973
7 net_115:4 P0 0.0682
8 net_115:1 net_115:5 0.4660
9 net_115:5 net_115:6 0.3296
10 net_115:6 net_115:7 0.2711
11 net_115:7 inst_37:A2 0.1177
12 net_115:2 net_115:8 0.4308
13 net_115:8 inst_127:A1 0.4593
14 net_115:8 net_115:9 0.3792
15 net_115:9 net_115:10 0.3945
16 net_115:10 inst_25:A2 0.1168
17 net_115:1 net_115:11 0.1342
18 net_115:11 net_115:12 0.2299
19 net_115:12 net_115:13 0.4466
20 net_115:13 net_115:14 0.0789
21 net_115:14 inst_35:A2 0.1418
22 net_115:7 net_115:15 0.2326
23 net_115:15 net_115:16 0.3632
24 net_115:16 net_115:17 0.2277
25 net_115:17 net_115:18 0.1399
26 net_115:18 inst_39:A1 0.3067
*END

*D_NET net_20 1.1635
*CONN
*I inst_114:QN O
*I inst_67:B I
*I inst_25:A1 I
*CAP
1 inst_114:QN 0.0694
2 net_20:1 0.0340
3 net_20:2 0.1910
4 inst_67:B 0.0233
5 net_20:3 0.0975
6 net_20:4 0.1398
7 net_20:5 0.3850
8 inst_25:A1 0.2235
*RES
2 inst_114:QN net_20:1 0.1519
3 net_20:1 net_20:2 0.4158
4 net_20:2 inst_67:B 0.0326
5 net_20:2 net_20:3 0.2530
6 net_20:3 net_20:4 0.0538
7 net_20:4 net_20:5 0.1085
8 net_20:5 inst_25:A1 0.3839
*END

*D_NET net_31 1.1056
*CONN
*I inst_39:ZN O
*I inst_47:A2 I
*CAP
1 inst_39:ZN 0.1655
2 net_31:1 0.3040
3 net_31:2 0.3068
4 net_31:3 0.1313
5 net_31:4 0.0490
6 inst_47:A2 0.1490
*RES
2 inst_39:ZN net_31:1 0.4082
3 net_31:1 net_31:2 0.0586
4 net_31:2 net_31:3 0.2553
5 net_31:3 net_31:4 0.4766
6 net_31:4 inst_47:A2 0.4662
*END

*D_NET net_49 1.9294
*CONN
*I inst_46:ZN O
*I inst_56:A1 I
*CAP
1 inst_46:ZN 0.3524
2 net_49:1 0.3838
3 net_49:2 0.2328
4 net_49:3 0.0616
5 net_49:4 0.3670
6 net_49:5 0.3852
7 inst_56:A1 0.1467
*RES
2 inst_46:ZN net_49:1 0.2409
3 net_49:1 net_49:2 0.4071
4 net_49:2 net_49:3 0.2078
5 net_49:3 net_49:4 0.1018
6 net_49:4 net_49:5 0.2212
7 net_49:5 inst_56:A1 0.0552
*END

*D_NET net_17 3.7190
*CONN
*I inst_111:QN O
*I inst_38:A1 I
*I inst_3:A1 I
*I inst_13:A2 I
*I inst_12:A3 I
*CAP
1 inst_111:QN 0.2527
2 net_17:1 0.0298
3 inst_3:A1 0.3266
4 net_17:2 0.1497
5 net_17:3 0.2415
6 inst_38:A1 0.4946
7 net_17:4 0.3748
8 inst_13:A2 0.3179
9 net_17:5 0.4707
10 net_17:6 0.4356
11 net_17:7 0.4554
12 inst_12:A3 0.1695
*RES
2 inst_111:QN net_17:1 0.3430
3 net_17:1 inst_3:A1 0.0062
4 net_17:1 net_17:2 0.2980
5 net_17:2 net_17:3 0.1661
6 net_17:3 inst_38:A1 0.4120
7 net_17:1 net_17:4 0.1204
8 net_17:4 inst_13:A2 0.0927
9 net_17:1 net_17:5 0.1359
10 net_17:5 net_17:6 0.3553
11 net_17:6 net_17:7 0.1500
12 net_17:7 inst_12:A3 0.4264
*END

*D_NET net_95 1.0910
*CONN
*I inst_22:ZN O
*I inst_124:D I
*CAP
1 inst_22:ZN 0.2331
2 net_95:1 0.4224
3 net_95:2 0.1724
4 net_95:3 0.0056
5 net_95:4 0.0020
6 net_95:5 0.0117
7 inst_124:D 0.2437
*RES
2 inst_22:ZN net_95:1 0.2268
3 net_95:1 net_95:2 0.2690
4 net_95:2 net_95:3 0.0296
5 net_95:3 net_95:4 0.2418
6 net_95:4 net_95:5 0.1876
7 net_95:5 inst_124:D 0.0595
*END

*D_NET net_36 1.4987
*CONN
*I inst_41:ZN O
*I inst_48:A2 I
*CAP
1 inst_41:ZN 0.4579
2 net_36:1 0.2535
3 net_36:2 0.2194
4 net_36:3 0.1135
5 inst_48:A2 0.4544
*RES
2 inst_41:ZN net_36:1 0.4819
3 net_36:1 net_36:2 0.3078
4 net_36:2 net_36:3 0.3570
5 net_36:3 inst_48:A2 0.3670
*END

*D_NET net_78 3.8135
*CONN
*I inst_29:ZN O
*I inst_15:A3 I
*I inst_24:A3 I
*I inst_30:A1 I
*I inst_63:A2 I
*CAP
1 inst_29:ZN 0.0125
2 net_78:1 0.2037
3 net_78:2 0.1594
4 net_78:3 0.3957
5 net_78:4 0.3077
6 net_78:5 0.4522
7 inst_15:A3 0.3100
8 net_78:6 0.2330
9 net_78:7 0.4566
10 inst_24:A3 0.2890
11 net_78:8 0.0997
12 inst_30:A1 0.0816
13 net_78:9 0.1999
14 net_78:10 0.2411
15 inst_63:A2 0.3714
*RES
2 inst_29:ZN net_78:1 0.1824
3 net_78:1 net_78:2 0.4992
4 net_78:2 net_78:3 0.3686
5 net_78:3 net_78:4 0.1667
6 net_78:4 net_78:5 0.4317
7 net_78:5 inst_15:A3 0.1120
8 net_78:5 net_78:6 0.4585
9 net_78:6 net_78:7 0.4359
10 net_78:7 inst_24:A3 0.0471
11 net_78:2 net_78:8 0.0662
12 net_78:8 inst_30:A1 0.4666
13 net_78:2 net_78:9 0.1596
14 net_78:9 net_78:10 0.2815
15 net_78:10 inst_63:A2 0.2732
*END

*D_NET A1 0.4302
*CONN
*P A1 I
*I inst_67:A I
*CAP
1 A1 0.0764
2 A1:1 0.1765
3 inst_67:A 0.1774
*RES
2 A1 A1:1 0.0392
3 A1:1 inst_67:A 0.3537
*END

*D_NET net_41 1.8527
*CONN
*I inst_6:ZN O
*I inst_50:A1 I
*CAP
1 inst_6:ZN 0.4790
2 net_41:1 0.4852
3 net_41:2 0.4891
4 net_41:3 0.0291
5 inst_50:A1 0.3703
*RES
2 inst_6:ZN net_41:1 0.3677
3 net_41:1 net_41:2 0.1593
4 net_41:2 net_41:3 0.3850
5 net_41:3 inst_50:A1 0.2041
*END

*D_NET net_27 5.9720
*CONN
*I inst_13:ZN O
*I inst_27:A2 I
*I inst_68:S I
*I inst_67:S I
*I inst_65:S I
*I inst_66:S I
*CAP
1 inst_13:ZN 0.4224
2 net_27:1 0.3021
3 net_27:2 0.1998
4 net_27:3 0.0562
5 net_27:4 0.2314
6 net_27:5 0.1382
7 inst_27:A2 0.1977
8 net_27:6 0.1957
9 net_27:7 0.1559
10 net_27:8 0.2317
11 net_27:9 0.0834
12 inst_68:S 0.1100
13 net_27:10 0.2533
14 net_27:11 0.1396