*SPEF "IEEE 1481-1998"
*DESIGN "changes"
*DATE "Tue Dec 02 20:02:41 2014"
*VENDOR "TAU 2015 Contest"
*PROGRAM "Benchmark Parasitic Generator"
*VERSION "0.0"
*DESIGN_FLOW "NETLIST_TYPE_VERILOG"
*DIVIDER /
*DELIMITER :
*BUS_DELIMITER [ ]
*T_UNIT 1 PS
*C_UNIT 1 FF
*R_UNIT 1 KOHM
*L_UNIT 1 UH

*D_NET TAUNET_219 1.7439
*CONN
*I TAUGATE_74:Z O
*I TAUGATE_219:A I
*CAP
1 TAUGATE_74:Z 0.2611
2 TAUNET_219:1 0.4098
3 TAUNET_219:2 0.5009
4 TAUNET_219:3 0.2843
5 TAUGATE_219:A 0.2878
*RES
2 TAUGATE_74:Z TAUNET_219:1 0.1659
3 TAUNET_219:1 TAUNET_219:2 0.2742
4 TAUNET_219:2 TAUNET_219:3 0.3494
5 TAUNET_219:3 TAUGATE_219:A 0.1485
*END

*D_NET net_78 1.3760
*CONN
*I inst_110:ZN O
*I inst_15:A3 I
*CAP
1 inst_110:ZN 0.2110
2 net_78:1 0.3070
3 net_78:2 0.3583
4 net_78:3 0.1395
5 net_78:4 0.0646
6 net_78:5 0.0794
7 inst_15:A3 0.2161
*RES
2 inst_110:ZN net_78:1 0.1614
3 net_78:1 net_78:2 0.3312
4 net_78:2 net_78:3 0.3755
5 net_78:3 net_78:4 0.4644
6 net_78:4 net_78:5 0.4559
7 net_78:5 inst_15:A3 0.4050
*END

*D_NET B2 0.4849
*CONN
*I TAUGATE_51:Z O
*I inst_5:A1 I
*CAP
1 TAUGATE_51:Z 0.1670
2 B2:1 0.2440
3 B2:2 0.0332
4 inst_5:A1 0.0406
*RES
2 TAUGATE_51:Z B2:1 0.2732
3 B2:1 B2:2 0.0073
4 B2:2 inst_5:A1 0.1308
*END

*D_NET net_48 4.4076
*CONN
*I inst_77:ZN O
*I inst_100:A I
*I inst_52:A1 I
*I inst_46:A1 I
*CAP
1 inst_77:ZN 0.2909
2 net_48:1 0.0740
3 net_48:2 0.4871
4 net_48:3 0.4951
5 net_48:4 0.4125
6 inst_100:A 0.0565
7 net_48:5 0.4708
8 net_48:6 0.3056
9 net_48:7 0.3464
10 net_48:8 0.0305
11 inst_52:A1 0.2383
12 net_48:9 0.3833
13 net_48:10 0.3292
14 net_48:11 0.0716
15 net_48:12 0.2236
16 inst_46:A1 0.1922
*RES
2 inst_77:ZN net_48:1 0.1285
3 net_48:1 net_48:2 0.0292
4 net_48:2 net_48:3 0.2926
5 net_48:3 net_48:4 0.4507
6 net_48:4 inst_100:A 0.3356
7 net_48:4 net_48:5 0.4020
8 net_48:5 net_48:6 0.2529
9 net_48:6 net_48:7 0.2665
10 net_48:7 net_48:8 0.4354
11 net_48:8 inst_52:A1 0.1977
12 net_48:1 net_48:9 0.2805
13 net_48:9 net_48:10 0.1322
14 net_48:10 net_48:11 0.1905
15 net_48:11 net_48:12 0.4017
16 net_48:12 inst_46:A1 0.4680
*END

*D_NET TAUNET_173 7.3740
*CONN
*I TAUGATE_239:Z O
*I TAUGATE_173:A I
*I inst_37:A2 I
*I inst_127:A1 I
*I inst_25:A2 I
*I inst_35:A2 I
*I inst_36:A2 I
*CAP
1 TAUGATE_239:Z 0.2331
2 TAUNET_173:1 0.3943
3 TAUNET_173:2 0.2211
4 TAUNET_173:3 0.1955
5 inst_25:A2 0.1868
6 TAUNET_173:4 0.4792
7 TAUNET_173:5 0.1808
8 TAUNET_173:6 0.0717
9 inst_37:A2 0.3990
10 TAUNET_173:7 0.4976
11 TAUNET_173:8 0.3591
12 TAUNET_173:9 0.2780
13 TAUNET_173:10 0.2022
14 inst_127:A1 0.1593
15 TAUNET_173:11 0.0632
16 TAUNET_173:12 0.2503
17 TAUNET_173:13 0.4700
18 TAUNET_173:14 0.3789
19 TAUNET_173:15 0.3545
20 TAUGATE_173:A 0.1033
21 TAUNET_173:16 0.2597
22 TAUNET_173:17 0.1267
23 TAUNET_173:18 0.3840
24 TAUNET_173:19 0.2434
25 inst_35:A2 0.3726
26 TAUNET_173:20 0.3022
27 TAUNET_173:21 0.1405
28 inst_36:A2 0.0668
*RES
2 TAUGATE_239:Z TAUNET_173:1 0.4889
3 TAUNET_173:1 TAUNET_173:2 0.0703
4 TAUNET_173:2 TAUNET_173:3 0.3298
5 TAUNET_173:3 inst_25:A2 0.4131
6 TAUNET_173:3 TAUNET_173:4 0.4035
7 TAUNET_173:4 TAUNET_173:5 0.0219
8 TAUNET_173:5 TAUNET_173:6 0.0830
9 TAUNET_173:6 inst_37:A2 0.4539
10 TAUNET_173:2 TAUNET_173:7 0.4382
11 TAUNET_173:7 TAUNET_173:8 0.3498
12 TAUNET_173:8 TAUNET_173:9 0.4055
13 TAUNET_173:9 TAUNET_173:10 0.4519
14 TAUNET_173:10 inst_127:A1 0.4658
15 TAUNET_173:8 TAUNET_173:11 0.4316
16 TAUNET_173:11 TAUNET_173:12 0.1782
17 TAUNET_173:12 TAUNET_173:13 0.4734
18 TAUNET_173:13 TAUNET_173:14 0.0376
19 TAUNET_173:14 TAUNET_173:15 0.0972
20 TAUNET_173:15 TAUGATE_173:A 0.3594
21 TAUNET_173:2 TAUNET_173:16 0.2980
22 TAUNET_173:16 TAUNET_173:17 0.2454
23 TAUNET_173:17 TAUNET_173:18 0.4670
24 TAUNET_173:18 TAUNET_173:19 0.1921
25 TAUNET_173:19 inst_35:A2 0.1376
26 TAUNET_173:18 TAUNET_173:20 0.3699
27 TAUNET_173:20 TAUNET_173:21 0.4131
28 TAUNET_173:21 inst_36:A2 0.4004
*END

