*SPEF "IEEE 1481-1998"
*DESIGN "changes"
*DATE "Tue Dec 02 20:02:39 2014"
*VENDOR "TAU 2015 Contest"
*PROGRAM "Benchmark Parasitic Generator"
*VERSION "0.0"
*DESIGN_FLOW "NETLIST_TYPE_VERILOG"
*DIVIDER /
*DELIMITER :
*BUS_DELIMITER [ ]
*T_UNIT 1 PS
*C_UNIT 1 FF
*R_UNIT 1 KOHM
*L_UNIT 1 UH

*D_NET TAUNET_4 1.7439
*CONN
*I inst_89:ZN O
*I TAUGATE_4:A I
*CAP
1 inst_89:ZN 0.2611
2 TAUNET_4:1 0.4098
3 TAUNET_4:2 0.5009
4 TAUNET_4:3 0.2843
5 TAUGATE_4:A 0.2878
*RES
2 inst_89:ZN TAUNET_4:1 0.1659
3 TAUNET_4:1 TAUNET_4:2 0.2742
4 TAUNET_4:2 TAUNET_4:3 0.3494
5 TAUNET_4:3 TAUGATE_4:A 0.1485
*END

*D_NET TAUNET_2 1.3760
*CONN
*I inst_68:Z O
*I TAUGATE_2:A I
*CAP
1 inst_68:Z 0.2110
2 TAUNET_2:1 0.3070
3 TAUNET_2:2 0.3583
4 TAUNET_2:3 0.1395
5 TAUNET_2:4 0.0646
6 TAUNET_2:5 0.0794
7 TAUGATE_2:A 0.2161
*RES
2 inst_68:Z TAUNET_2:1 0.1614
3 TAUNET_2:1 TAUNET_2:2 0.3312
4 TAUNET_2:2 TAUNET_2:3 0.3755
5 TAUNET_2:3 TAUNET_2:4 0.4644
6 TAUNET_2:4 TAUNET_2:5 0.4559
7 TAUNET_2:5 TAUGATE_2:A 0.4050
*END

*D_NET READY 9.8773
*CONN
*I TAUGATE_4:Z O
*P READY O
*I inst_6:A2 I
*I inst_40:A2 I
*I inst_5:A2 I
*I inst_42:A2 I
*I inst_41:A2 I
*I inst_4:A2 I
*I inst_7:A2 I
*I inst_39:A2 I
*CAP
1 TAUGATE_4:Z 0.1670
2 READY:1 0.2440
3 READY:2 0.0332
4 READY 0.0406
5 READY:3 0.3706
6 READY:4 0.0740
7 READY:5 0.4871
8 inst_6:A2 0.4951
9 READY:6 0.3356
10 READY:7 0.3995
11 READY:8 0.3845
12 READY:9 0.4708
13 READY:10 0.3056
14 inst_40:A2 0.3464
15 READY:11 0.3276
16 inst_5:A2 0.3833
17 READY:12 0.1322
18 READY:13 0.1905
19 READY:14 0.4017
20 inst_42:A2 0.4680
21 READY:15 0.1868
22 READY:16 0.4889
23 inst_41:A2 0.0703
24 READY:17 0.1808
25 READY:18 0.0717
26 READY:19 0.3990
27 READY:20 0.4035
28 READY:21 0.0219
29 inst_4:A2 0.0830
30 READY:22 0.4382
31 READY:23 0.3498
32 inst_7:A2 0.4055
33 READY:24 0.2503
34 inst_39:A2 0.4700
*RES
2 TAUGATE_4:Z READY:1 0.2732
3 READY:1 READY:2 0.0073
4 READY:2 READY 0.1308
5 READY:1 READY:3 0.4125
6 READY:3 READY:4 0.0565
7 READY:4 READY:5 0.1285
8 READY:5 inst_6:A2 0.0292
9 READY:3 READY:6 0.0305
10 READY:6 READY:7 0.2383
11 READY:7 READY:8 0.4020
12 READY:8 READY:9 0.2529
13 READY:9 READY:10 0.2665
14 READY:10 inst_40:A2 0.4354
15 READY:4 READY:11 0.3292
16 READY:11 inst_5:A2 0.0716
17 READY:5 READY:12 0.2976
18 READY:12 READY:13 0.2331
19 READY:13 READY:14 0.2927
20 READY:14 inst_42:A2 0.3943
21 READY:6 READY:15 0.3298
22 READY:15 READY:16 0.4131
23 READY:16 inst_41:A2 0.3310
24 READY:10 READY:17 0.4539
25 READY:17 READY:18 0.1250
26 READY:18 READY:19 0.3196
27 READY:19 READY:20 0.4976
28 READY:20 READY:21 0.3591
29 READY:21 inst_4:A2 0.2780
30 READY:9 READY:22 0.4519
31 READY:22 READY:23 0.4658
32 READY:23 inst_7:A2 0.3690
33 READY:19 READY:24 0.3789
34 READY:24 inst_39:A2 0.3545
*END

*D_NET net_70 1.0398
*CONN
*I TAUGATE_2:Z O
*I inst_115:D I
*CAP
1 TAUGATE_2:Z 0.4316
2 net_70:1 0.4734
3 net_70:2 0.0376
4 inst_115:D 0.0972
*RES
2 TAUGATE_2:Z net_70:1 0.3594
3 net_70:1 net_70:2 0.0525
4 net_70:2 inst_115:D 0.3248
*END

*D_NET TAUNET_3 1.7532
*CONN
*I inst_93:ZN O
*I TAUGATE_3:A I
*CAP
1 inst_93:ZN 0.1267
2 TAUNET_3:1 0.2434
3 TAUNET_3:2 0.3726
4 TAUNET_3:3 0.2980
5 TAUNET_3:4 0.2454
6 TAUGATE_3:A 0.4670
*RES
2 inst_93:ZN TAUNET_3:1 0.1921
3 TAUNET_3:1 TAUNET_3:2 0.1376
4 TAUNET_3:2 TAUNET_3:3 0.4443
5 TAUNET_3:3 TAUNET_3:4 0.1288
6 TAUNET_3:4 TAUGATE_3:A 0.3022
*END

*D_NET net_113 3.7900
*CONN
*I TAUGATE_3:Z O
*I inst_2:A3 I
*I inst_44:A1 I
*I inst_14:A1 I
*CAP
1 TAUGATE_3:Z 0.0668
2 net_113:1 0.4131
3 net_113:2 0.4004
4 net_113:3 0.4814
5 net_113:4 0.1341
6 inst_2:A3 0.3915
7 net_113:5 0.3147
8 net_113:6 0.2761
9 inst_44:A1 0.3643
10 net_113:7 0.2731
11 net_113:8 0.1525
12 net_113:9 0.0518
13 net_113:10 0.2548
14 inst_14:A1 0.2154
*RES
2 TAUGATE_3:Z net_113:1 0.0282
3 net_113:1 net_113:2 0.3089
4 net_113:2 net_113:3 0.0253
5 net_113:3 net_113:4 0.3105
6 net_113:4 inst_2:A3 0.1881
7 net_113:2 net_113:5 0.2288
8 net_113:5 net_113:6 0.0666
9 net_113:6 inst_44:A1 0.3854
10 net_113:5 net_113:7 0.4921
11 net_113:7 net_113:8 0.1648
12 net_113:8 net_113:9 0.1855
13 net_113:9 net_113:10 0.0112
14 net_113:10 inst_14:A1 0.3530
*END

