*SPEF "IEEE 1481-1998"
*DESIGN "changes"
*DATE "Tue Dec 02 20:02:39 2014"
*VENDOR "TAU 2015 Contest"
*PROGRAM "Benchmark Parasitic Generator"
*VERSION "0.0"
*DESIGN_FLOW "NETLIST_TYPE_VERILOG"
*DIVIDER /
*DELIMITER :
*BUS_DELIMITER [ ]
*T_UNIT 1 PS
*C_UNIT 1 FF
*R_UNIT 1 KOHM
*L_UNIT 1 UH

*D_NET TAUNET_13 1.7439
*CONN
*I inst_80:ZN O
*I TAUGATE_13:A I
*CAP
1 inst_80:ZN 0.2611
2 TAUNET_13:1 0.4098
3 TAUNET_13:2 0.5009
4 TAUNET_13:3 0.2843
5 TAUGATE_13:A 0.2878
*RES
2 inst_80:ZN TAUNET_13:1 0.1659
3 TAUNET_13:1 TAUNET_13:2 0.2742
4 TAUNET_13:2 TAUNET_13:3 0.3494
5 TAUNET_13:3 TAUGATE_13:A 0.1485
*END

*D_NET TAUNET_12 1.3760
*CONN
*I inst_39:ZN O
*I TAUGATE_12:A I
*CAP
1 inst_39:ZN 0.2110
2 TAUNET_12:1 0.3070
3 TAUNET_12:2 0.3583
4 TAUNET_12:3 0.1395
5 TAUNET_12:4 0.0646
6 TAUNET_12:5 0.0794
7 TAUGATE_12:A 0.2161
*RES
2 inst_39:ZN TAUNET_12:1 0.1614
3 TAUNET_12:1 TAUNET_12:2 0.3312
4 TAUNET_12:2 TAUNET_12:3 0.3755
5 TAUNET_12:3 TAUNET_12:4 0.4644
6 TAUNET_12:4 TAUNET_12:5 0.4559
7 TAUNET_12:5 TAUGATE_12:A 0.4050
*END

*D_NET net_47 4.1543
*CONN
*I TAUGATE_33:Z O
*I inst_17:A2 I
*I inst_9:A2 I
*I inst_45:A2 I
*CAP
1 TAUGATE_33:Z 0.1670
2 net_47:1 0.2440
3 net_47:2 0.0332
4 inst_17:A2 0.0406
5 net_47:3 0.3706
6 net_47:4 0.0740
7 net_47:5 0.4871
8 inst_9:A2 0.4951
9 net_47:6 0.3356
10 net_47:7 0.3995
11 net_47:8 0.3845
12 net_47:9 0.4708
13 net_47:10 0.3056
14 inst_45:A2 0.3464
*RES
2 TAUGATE_33:Z net_47:1 0.2732
3 net_47:1 net_47:2 0.0073
4 net_47:2 inst_17:A2 0.1308
5 net_47:1 net_47:3 0.4125
6 net_47:3 net_47:4 0.0565
7 net_47:4 net_47:5 0.1285
8 net_47:5 inst_9:A2 0.0292
9 net_47:3 net_47:6 0.0305
10 net_47:6 net_47:7 0.2383
11 net_47:7 net_47:8 0.4020
12 net_47:8 net_47:9 0.2529
13 net_47:9 net_47:10 0.2665
14 net_47:10 inst_45:A2 0.4354
*END

*D_NET net_61 1.2788
*CONN
*I TAUGATE_29:Z O
*I inst_22:A1 I
*CAP
1 TAUGATE_29:Z 0.0788
2 net_61:1 0.3833
3 net_61:2 0.3292
4 net_61:3 0.0716
5 net_61:4 0.2236
6 inst_22:A1 0.1922
*RES
2 TAUGATE_29:Z net_61:1 0.2805
3 net_61:1 net_61:2 0.1322
4 net_61:2 net_61:3 0.1905
5 net_61:3 net_61:4 0.4017
6 net_61:4 inst_22:A1 0.4680
*END

*D_NET net_54 1.2308
*CONN
*I TAUGATE_19:Z O
*I inst_63:A1 I
*CAP
1 TAUGATE_19:Z 0.2331
2 net_54:1 0.3943
3 net_54:2 0.2211
4 net_54:3 0.1955
5 inst_63:A1 0.1868
*RES
2 TAUGATE_19:Z net_54:1 0.4889
3 net_54:1 net_54:2 0.0703
4 net_54:2 net_54:3 0.3298
5 net_54:3 inst_63:A1 0.4131
*END

*D_NET net_105 1.4221
*CONN
*I TAUGATE_21:Z O
*I inst_21:A1 I
*CAP
1 TAUGATE_21:Z 0.2621
2 net_105:1 0.1808
3 net_105:2 0.0717
4 net_105:3 0.3990
5 net_105:4 0.4035
6 net_105:5 0.0219
7 inst_21:A1 0.0830
*RES
2 TAUGATE_21:Z net_105:1 0.4539
3 net_105:1 net_105:2 0.1250
4 net_105:2 net_105:3 0.3196
5 net_105:3 net_105:4 0.4976
6 net_105:4 net_105:5 0.3591
7 net_105:5 inst_21:A1 0.2780
*END

*D_NET P3 2.6031
*CONN
*I TAUGATE_44:Z O
*P P3 O
*CAP
1 TAUGATE_44:Z 0.1593
2 P3:1 0.3498
3 P3:2 0.4055
4 P3:3 0.4519
5 P3:4 0.4658
6 P3:5 0.3690
7 P3 0.4019
*RES
2 TAUGATE_44:Z P3:1 0.0632
3 P3:1 P3:2 0.2503
4 P3:2 P3:3 0.4700
5 P3:3 P3:4 0.3789
6 P3:4 P3:5 0.3545
7 P3:5 P3 0.1033
*END

*D_NET TAUNET_35 1.3094
*CONN
*I inst_7:ZN O
*I TAUGATE_35:A I
*CAP
1 inst_7:ZN 0.1782
2 TAUNET_35:1 0.0376
3 TAUNET_35:2 0.0972
4 TAUNET_35:3 0.3594
5 TAUNET_35:4 0.0525
6 TAUNET_35:5 0.3248
7 TAUGATE_35:A 0.2597
*RES
2 inst_7:ZN TAUNET_35:1 0.1267
3 TAUNET_35:1 TAUNET_35:2 0.3840
4 TAUNET_35:2 TAUNET_35:3 0.2434
5 TAUNET_35:3 TAUNET_35:4 0.3726
6 TAUNET_35:4 TAUNET_35:5 0.2980
7 TAUNET_35:5 TAUGATE_35:A 0.2454
*END

*D_NET net_55 1.0674
*CONN
*I TAUGATE_24:Z O
*I inst_112:D I
*CAP
1 TAUGATE_24:Z 0.1921
2 net_55:1 0.4443
3 net_55:2 0.1288
4 inst_112:D 0.3022
*RES
2 TAUGATE_24:Z net_55:1 0.1405
3 net_55:1 net_55:2 0.0668
4 net_55:2 inst_112:D 0.3699
*END

*D_NET P5 1.5989
*CONN
*I TAUGATE_56:Z O
*P P5 O
*CAP
1 TAUGATE_56:Z 0.4004
2 P5:1 0.1341
3 P5:2 0.3915
4 P5:3 0.0282
5 P5:4 0.3089
6 P5:5 0.0253
7 P5 0.3105
*RES
2 TAUGATE_56:Z P5:1 0.1881
3 P5:1 P5:2 0.2034
4 P5:2 P5:3 0.1592
5 P5:3 P5:4 0.3147
6 P5:4 P5:5 0.2761
7 P5:5 P5 0.3643
*END

*D_NET B1 1.2795
*CONN
*I TAUGATE_30:Z O
*I inst_6:A1 I
*CAP
1 TAUGATE_30:Z 0.0666
2 B1:1 0.3580
3 B1:2 0.3774
4 B1:3 0.2731
5 B1:4 0.1525
6 inst_6:A1 0.0518
*RES
2 TAUGATE_30:Z B1:1 0.2548
3 B1:1 B1:2 0.2154
4 B1:2 B1:3 0.4921
5 B1:3 B1:4 0.1648
6 B1:4 inst_6:A1 0.1855
*END

*D_NET net_53 1.0916
*CONN
*I TAUGATE_37:Z O
*I inst_69:A I
*CAP
1 TAUGATE_37:Z 0.3530
2 net_53:1 0.2239
3 net_53:2 0.0917
4 inst_69:A 0.4230
*RES
2 TAUGATE_37:Z net_53:1 0.1494
3 net_53:1 net_53:2 0.3290
4 net_53:2 inst_69:A 0.1620
*END

*D_NET TAUNET_46 1.1549
*CONN
*I inst_16:ZN O
*I TAUGATE_46:A I
*CAP
1 inst_16:ZN 0.2883
2 TAUNET_46:1 0.4381
3 TAUNET_46:2 0.3484
4 TAUGATE_46:A 0.0801
*RES
2 inst_16:ZN TAUNET_46:1 0.1392
3 TAUNET_46:1 TAUNET_46:2 0.1891
4 TAUNET_46:2 TAUGATE_46:A 0.0464
*END

*D_NET TAUNET_24 1.0649
*CONN
*I inst_10:ZN O
*I TAUGATE_24:A I
*CAP
1 inst_10:ZN 0.0279
2 TAUNET_24:1 0.0649
3 TAUNET_24:2 0.0510
4 TAUNET_24:3 0.1600
5 TAUNET_24:4 0.1748
6 TAUNET_24:5 0.4787
7 TAUGATE_24:A 0.1076
*RES
2 inst_10:ZN TAUNET_24:1 0.4606
3 TAUNET_24:1 TAUNET_24:2 0.3388
4 TAUNET_24:2 TAUNET_24:3 0.4657
5 TAUNET_24:3 TAUNET_24:4 0.3595
6 TAUNET_24:4 TAUNET_24:5 0.2471
7 TAUNET_24:5 TAUGATE_24:A 0.0832
*END

*D_NET TAUNET_16 0.8209
*CONN
*I inst_96:ZN O
*I TAUGATE_16:A I
*CAP
1 inst_96:ZN 0.3736
2 TAUNET_16:1 0.3644
3 TAUGATE_16:A 0.0829
*RES
2 inst_96:ZN TAUNET_16:1 0.1977
3 TAUNET_16:1 TAUGATE_16:A 0.4694
*END

*D_NET net_7 2.0853
*CONN
*I TAUGATE_54:Z O
*I inst_95:A I
*CAP
1 TAUGATE_54:Z 0.3882
2 net_7:1 0.0413
3 net_7:2 0.4651
4 net_7:3 0.4065
5 net_7:4 0.3164
6 net_7:5 0.3513
7 inst_95:A 0.1165
*RES
2 TAUGATE_54:Z net_7:1 0.0986
3 net_7:1 net_7:2 0.2243
4 net_7:2 net_7:3 0.1286
5 net_7:3 net_7:4 0.4269
6 net_7:4 net_7:5 0.2482
7 net_7:5 inst_95:A 0.2195
*END

*D_NET TAUNET_31 1.7569
*CONN
*I inst_6:ZN O
*I TAUGATE_31:A I
*CAP
1 inst_6:ZN 0.4091
2 TAUNET_31:1 0.3587
3 TAUNET_31:2 0.1869
4 TAUNET_31:3 0.4974
5 TAUGATE_31:A 0.3047
*RES
2 inst_6:ZN TAUNET_31:1 0.1200
3 TAUNET_31:1 TAUNET_31:2 0.4969
4 TAUNET_31:2 TAUNET_31:3 0.1210
5 TAUNET_31:3 TAUGATE_31:A 0.1733
*END

*D_NET TAUNET_25 1.1896
*CONN
*P B3 I
*I TAUGATE_25:A I
*CAP
1 B3 0.0283
2 TAUNET_25:1 0.2945
3 TAUNET_25:2 0.3177
4 TAUNET_25:3 0.2101
5 TAUGATE_25:A 0.3390
*RES
2 B3 TAUNET_25:1 0.2046
3 TAUNET_25:1 TAUNET_25:2 0.3404
4 TAUNET_25:2 TAUNET_25:3 0.1317
5 TAUNET_25:3 TAUGATE_25:A 0.3617
*END

*D_NET TAUNET_27 1.2055
*CONN
*I inst_111:QN O
*I TAUGATE_27:A I
*CAP
1 inst_111:QN 0.3629
2 TAUNET_27:1 0.3900
3 TAUNET_27:2 0.0557
4 TAUNET_27:3 0.1253
5 TAUGATE_27:A 0.2716
*RES
2 inst_111:QN TAUNET_27:1 0.3735
3 TAUNET_27:1 TAUNET_27:2 0.1079
4 TAUNET_27:2 TAUNET_27:3 0.3323
5 TAUNET_27:3 TAUGATE_27:A 0.2907
*END

*D_NET TAUNET_28 1.4383
*CONN
*I inst_52:ZN O
*I TAUGATE_28:A I
*CAP
1 inst_52:ZN 0.4966
2 TAUNET_28:1 0.2702
3 TAUNET_28:2 0.2135
4 TAUNET_28:3 0.0419
5 TAUNET_28:4 0.2773
6 TAUNET_28:5 0.0903
7 TAUGATE_28:A 0.0485
*RES
2 inst_52:ZN TAUNET_28:1 0.4602
3 TAUNET_28:1 TAUNET_28:2 0.4262
4 TAUNET_28:2 TAUNET_28:3 0.2009
5 TAUNET_28:3 TAUNET_28:4 0.3114
6 TAUNET_28:4 TAUNET_28:5 0.3090
7 TAUNET_28:5 TAUGATE_28:A 0.3972
*END

*D_NET TAUNET_57 1.1430
*CONN
*I inst_69:Z O
*I TAUGATE_57:A I
*CAP
1 inst_69:Z 0.2443
2 TAUNET_57:1 0.3734
3 TAUNET_57:2 0.1567
4 TAUNET_57:3 0.1247
5 TAUGATE_57:A 0.2439
*RES
2 inst_69:Z TAUNET_57:1 0.2588
3 TAUNET_57:1 TAUNET_57:2 0.4474
4 TAUNET_57:2 TAUNET_57:3 0.3528
5 TAUNET_57:3 TAUGATE_57:A 0.0472
*END

*D_NET TAUNET_37 1.3929
*CONN
*I inst_50:ZN O
*I TAUGATE_37:A I
*CAP
1 inst_50:ZN 0.1981
2 TAUNET_37:1 0.0169
3 TAUNET_37:2 0.4026
4 TAUNET_37:3 0.4684
5 TAUNET_37:4 0.2490
6 TAUGATE_37:A 0.0579
*RES
2 inst_50:ZN TAUNET_37:1 0.0423
3 TAUNET_37:1 TAUNET_37:2 0.2861
4 TAUNET_37:2 TAUNET_37:3 0.4278
5 TAUNET_37:3 TAUNET_37:4 0.3875
6 TAUNET_37:4 TAUGATE_37:A 0.4796
*END

*D_NET TAUNET_32 1.0064
*CONN
*I inst_43:ZN O
*I TAUGATE_32:A I
*CAP
1 inst_43:ZN 0.1554
2 TAUNET_32:1 0.4380
3 TAUGATE_32:A 0.4130
*RES
2 inst_43:ZN TAUNET_32:1 0.4990
3 TAUNET_32:1 TAUGATE_32:A 0.2134
*END

*D_NET TAUNET_38 2.0765
*CONN
*I inst_22:ZN O
*I TAUGATE_38:A I
*CAP
1 inst_22:ZN 0.4947
2 TAUNET_38:1 0.2854
3 TAUNET_38:2 0.4464
4 TAUNET_38:3 0.2438
5 TAUNET_38:4 0.2969
6 TAUGATE_38:A 0.3091
*RES
2 inst_22:ZN TAUNET_38:1 0.5006
3 TAUNET_38:1 TAUNET_38:2 0.2264
4 TAUNET_38:2 TAUNET_38:3 0.3973
5 TAUNET_38:3 TAUNET_38:4 0.2044
6 TAUNET_38:4 TAUGATE_38:A 0.1531
*END

*D_NET P1 1.2691
*CONN
*I TAUGATE_16:Z O
*P P1 O
*CAP
1 TAUGATE_16:Z 0.2618
2 P1:1 0.4002
3 P1:2 0.3652
4 P1:3 0.1857
5 P1 0.0562
*RES
2 TAUGATE_16:Z P1:1 0.0882
3 P1:1 P1:2 0.4386
4 P1:2 P1:3 0.2715
5 P1:3 P1 0.0199
*END

*D_NET net_76 0.5520
*CONN
*I TAUGATE_57:Z O
*I inst_118:D I
*CAP
1 TAUGATE_57:Z 0.1459
2 net_76:1 0.1026
3 net_76:2 0.1939
4 inst_118:D 0.1095
*RES
2 TAUGATE_57:Z net_76:1 0.0212
3 net_76:1 net_76:2 0.1417
4 net_76:2 inst_118:D 0.2190
*END

*D_NET P0 2.5691
*CONN
*I TAUGATE_50:Z O
*P P0 O
*I inst_72:A I
*CAP
1 TAUGATE_50:Z 0.1138
2 P0:1 0.3663
3 P0:2 0.2540
4 P0:3 0.0526
5 P0:4 0.2388
6 P0:5 0.1787
7 inst_72:A 0.3603
8 P0:6 0.4441
9 P0:7 0.4218
10 P0:8 0.0848
11 P0:9 0.0266
12 P0 0.0274
*RES
2 TAUGATE_50:Z P0:1 0.0603
3 P0:1 P0:2 0.0863
4 P0:2 P0:3 0.3102
5 P0:3 P0:4 0.1239
6 P0:4 P0:5 0.2473
7 P0:5 inst_72:A 0.0055
8 P0:3 P0:6 0.4218
9 P0:6 P0:7 0.2061
10 P0:7 P0:8 0.2110
11 P0:8 P0:9 0.4583
12 P0:9 P0 0.3985
*END

*D_NET TAUNET_40 1.9898
*CONN
*I inst_41:ZN O
*I TAUGATE_40:A I
*CAP
1 inst_41:ZN 0.0725
2 TAUNET_40:1 0.3124
3 TAUNET_40:2 0.3685
4 TAUNET_40:3 0.4317
5 TAUNET_40:4 0.1801
6 TAUNET_40:5 0.2826
7 TAUGATE_40:A 0.3420
*RES
2 inst_41:ZN TAUNET_40:1 0.0965
3 TAUNET_40:1 TAUNET_40:2 0.2555
4 TAUNET_40:2 TAUNET_40:3 0.1304
5 TAUNET_40:3 TAUNET_40:4 0.3675
6 TAUNET_40:4 TAUNET_40:5 0.4634
7 TAUNET_40:5 TAUGATE_40:A 0.2869
*END

*D_NET TAUNET_20 0.5511
*CONN
*I inst_31:ZN O
*I TAUGATE_20:A I
*CAP
1 inst_31:ZN 0.1182
2 TAUNET_20:1 0.0608
3 TAUGATE_20:A 0.3721
*RES
2 inst_31:ZN TAUNET_20:1 0.4648
3 TAUNET_20:1 TAUGATE_20:A 0.2376
*END

*D_NET net_111 0.8353
*CONN
*I TAUGATE_14:Z O
*I inst_30:A2 I
*CAP
1 TAUGATE_14:Z 0.3081
2 net_111:1 0.0264
3 net_111:2 0.2502
4 inst_30:A2 0.2506
*RES
2 TAUGATE_14:Z net_111:1 0.4486
3 net_111:1 net_111:2 0.0641
4 net_111:2 inst_30:A2 0.0138
*END

*D_NET net_100 0.7959
*CONN
*I TAUGATE_36:Z O
*I inst_26:A1 I
*CAP
1 TAUGATE_36:Z 0.0204
2 net_100:1 0.1001
3 net_100:2 0.2747
4 net_100:3 0.1704
5 inst_26:A1 0.2303
*RES
2 TAUGATE_36:Z net_100:1 0.0121
3 net_100:1 net_100:2 0.0620
4 net_100:2 net_100:3 0.0267
5 net_100:3 inst_26:A1 0.1278
*END

*D_NET TAUNET_14 1.5058
*CONN
*I inst_55:ZN O
*I TAUGATE_14:A I
*CAP
1 inst_55:ZN 0.3621
2 TAUNET_14:1 0.3490
3 TAUNET_14:2 0.4751
4 TAUGATE_14:A 0.3195
*RES
2 inst_55:ZN TAUNET_14:1 0.4748
3 TAUNET_14:1 TAUNET_14:2 0.2505
4 TAUNET_14:2 TAUGATE_14:A 0.2036
*END

*D_NET CNTVCON2 1.2849
*CONN
*I TAUGATE_15:Z O
*P CNTVCON2 O
*CAP
1 TAUGATE_15:Z 0.0185
2 CNTVCON2:1 0.2437
3 CNTVCON2:2 0.3641
4 CNTVCON2:3 0.1411
5 CNTVCON2:4 0.2452
6 CNTVCON2 0.2723
*RES
2 TAUGATE_15:Z CNTVCON2:1 0.2079
3 CNTVCON2:1 CNTVCON2:2 0.2449
4 CNTVCON2:2 CNTVCON2:3 0.0406
5 CNTVCON2:3 CNTVCON2:4 0.0917
6 CNTVCON2:4 CNTVCON2 0.0078
*END

*D_NET TAUNET_49 0.3723
*CONN
*I inst_115:QN O
*I TAUGATE_49:A I
*CAP
1 inst_115:QN 0.0264
2 TAUNET_49:1 0.1906
3 TAUGATE_49:A 0.1553
*RES
2 inst_115:QN TAUNET_49:1 0.0937
3 TAUNET_49:1 TAUGATE_49:A 0.2944
*END

*D_NET CNTVCO2 2.6373
*CONN
*I TAUGATE_22:Z O
*P CNTVCO2 O
*I inst_105:A I
*CAP
1 TAUGATE_22:Z 0.0209
2 CNTVCO2:1 0.1067
3 CNTVCO2:2 0.4881
4 inst_105:A 0.3672
5 CNTVCO2:3 0.2979
6 CNTVCO2:4 0.3428
7 CNTVCO2:5 0.2325
8 CNTVCO2:6 0.2733
9 CNTVCO2:7 0.1266
10 CNTVCO2 0.3814
*RES
2 TAUGATE_22:Z CNTVCO2:1 0.4629
3 CNTVCO2:1 CNTVCO2:2 0.1157
4 CNTVCO2:2 inst_105:A 0.1901
5 CNTVCO2:1 CNTVCO2:3 0.1363
6 CNTVCO2:3 CNTVCO2:4 0.3277
7 CNTVCO2:4 CNTVCO2:5 0.3144
8 CNTVCO2:5 CNTVCO2:6 0.4503
9 CNTVCO2:6 CNTVCO2:7 0.3676
10 CNTVCO2:7 CNTVCO2 0.1603
*END

*D_NET net_68 1.5235
*CONN
*I TAUGATE_10:Z O
*I inst_116:D I
*CAP
1 TAUGATE_10:Z 0.1159
2 net_68:1 0.1465
3 net_68:2 0.1463
4 net_68:3 0.4621
5 net_68:4 0.4065
6 net_68:5 0.0227
7 inst_116:D 0.2236
*RES
2 TAUGATE_10:Z net_68:1 0.4114
3 net_68:1 net_68:2 0.0715
4 net_68:2 net_68:3 0.1546
5 net_68:3 net_68:4 0.1861
6 net_68:4 net_68:5 0.4367
7 net_68:5 inst_116:D 0.3452
*END

*D_NET B3 0.3052
*CONN
*I TAUGATE_25:Z O
*I inst_4:A1 I
*CAP
1 TAUGATE_25:Z 0.1217
2 B3:1 0.1222
3 inst_4:A1 0.0613
*RES
2 TAUGATE_25:Z B3:1 0.1692
3 B3:1 inst_4:A1 0.4407
*END

*D_NET TAUNET_50 1.3881
*CONN
*I inst_126:Z O
*I TAUGATE_50:A I
*CAP
1 inst_126:Z 0.2563
2 TAUNET_50:1 0.2603
3 TAUNET_50:2 0.2874
4 TAUNET_50:3 0.3072
5 TAUGATE_50:A 0.2768
*RES
2 inst_126:Z TAUNET_50:1 0.1679
3 TAUNET_50:1 TAUNET_50:2 0.2053
4 TAUNET_50:2 TAUNET_50:3 0.2140
5 TAUNET_50:3 TAUGATE_50:A 0.3306
*END

*D_NET net_31 2.0736
*CONN
*I TAUGATE_12:Z O
*I inst_47:A2 I
*CAP
1 TAUGATE_12:Z 0.2580
2 net_31:1 0.4796
3 net_31:2 0.3806
4 net_31:3 0.4946
5 inst_47:A2 0.4608
*RES
2 TAUGATE_12:Z net_31:1 0.4692
3 net_31:1 net_31:2 0.4766
4 net_31:2 net_31:3 0.0589
5 net_31:3 inst_47:A2 0.0962
*END

*D_NET net_20 2.1074
*CONN
*I TAUGATE_13:Z O
*I inst_67:B I
*I inst_25:A1 I
*CAP
1 TAUGATE_13:Z 0.1750
2 net_20:1 0.0845
3 net_20:2 0.1888
4 net_20:3 0.1436
5 net_20:4 0.1762
6 net_20:5 0.4748
7 inst_67:B 0.0806
8 net_20:6 0.4110
9 net_20:7 0.0191
10 inst_25:A1 0.3538
*RES
2 TAUGATE_13:Z net_20:1 0.0407
3 net_20:1 net_20:2 0.2069
4 net_20:2 net_20:3 0.0491
5 net_20:3 net_20:4 0.4137
6 net_20:4 net_20:5 0.3046
7 net_20:5 inst_67:B 0.2987
8 net_20:3 net_20:6 0.4300
9 net_20:6 net_20:7 0.3629
10 net_20:7 inst_25:A1 0.0787
*END

*D_NET TAUNET_23 2.0675
*CONN
*I inst_90:ZN O
*I TAUGATE_23:A I
*CAP
1 inst_90:ZN 0.2971
2 TAUNET_23:1 0.5010
3 TAUNET_23:2 0.3538
4 TAUNET_23:3 0.4649
5 TAUNET_23:4 0.0482
6 TAUNET_23:5 0.1062
7 TAUGATE_23:A 0.2963
*RES
2 inst_90:ZN TAUNET_23:1 0.4911
3 TAUNET_23:1 TAUNET_23:2 0.2002
4 TAUNET_23:2 TAUNET_23:3 0.2573
5 TAUNET_23:3 TAUNET_23:4 0.3761
6 TAUNET_23:4 TAUNET_23:5 0.0616
7 TAUNET_23:5 TAUGATE_23:A 0.4298
*END

*D_NET net_4 0.5116
*CONN
*I TAUGATE_49:Z O
*I inst_81:A I
*CAP
1 TAUGATE_49:Z 0.2634
2 net_4:1 0.0745
3 inst_81:A 0.1738
*RES
2 TAUGATE_49:Z net_4:1 0.4336
3 net_4:1 inst_81:A 0.4556
*END

*D_NET TAUNET_39 1.0764
*CONN
*I inst_62:ZN O
*I TAUGATE_39:A I
*CAP
1 inst_62:ZN 0.0036
2 TAUNET_39:1 0.2737
3 TAUNET_39:2 0.3095
4 TAUGATE_39:A 0.4895
*RES
2 inst_62:ZN TAUNET_39:1 0.4033
3 TAUNET_39:1 TAUNET_39:2 0.2734
4 TAUNET_39:2 TAUGATE_39:A 0.3461
*END

*D_NET net_36 1.3424
*CONN
*I TAUGATE_40:Z O
*I inst_48:A2 I
*CAP
1 TAUGATE_40:Z 0.0418
2 net_36:1 0.3815
3 net_36:2 0.1458
4 net_36:3 0.4915
5 net_36:4 0.0683
6 inst_48:A2 0.2135
*RES
2 TAUGATE_40:Z net_36:1 0.4484
3 net_36:1 net_36:2 0.1379
4 net_36:2 net_36:3 0.1139
5 net_36:3 net_36:4 0.0489
6 net_36:4 inst_48:A2 0.0861
*END

*D_NET net_95 1.2401
*CONN
*I TAUGATE_38:Z O
*I inst_124:D I
*CAP
1 TAUGATE_38:Z 0.4806
2 net_95:1 0.1114
3 net_95:2 0.0198
4 net_95:3 0.2366
5 net_95:4 0.1100
6 inst_124:D 0.2818
*RES
2 TAUGATE_38:Z net_95:1 0.3290
3 net_95:1 net_95:2 0.1592
4 net_95:2 net_95:3 0.4236
5 net_95:3 net_95:4 0.3328
6 net_95:4 inst_124:D 0.1906
*END

*D_NET TAUNET_51 1.5747
*CONN
*P B2 I
*I TAUGATE_51:A I
*CAP
1 B2 0.4347
2 TAUNET_51:1 0.1394
3 TAUNET_51:2 0.0096
4 TAUNET_51:3 0.4963
5 TAUNET_51:4 0.2377
6 TAUGATE_51:A 0.2571
*RES
2 B2 TAUNET_51:1 0.3610
3 TAUNET_51:1 TAUNET_51:2 0.0042
4 TAUNET_51:2 TAUNET_51:3 0.2690
5 TAUNET_51:3 TAUNET_51:4 0.3841
6 TAUNET_51:4 TAUGATE_51:A 0.3400
*END

*D_NET net_41 1.2277
*CONN
*I TAUGATE_31:Z O
*I inst_50:A1 I
*CAP
1 TAUGATE_31:Z 0.3112
2 net_41:1 0.4134
3 net_41:2 0.0741
4 inst_50:A1 0.4290
*RES
2 TAUGATE_31:Z net_41:1 0.4891
3 net_41:1 net_41:2 0.0621
4 net_41:2 inst_50:A1 0.2122
*END

*D_NET TAUNET_19 0.7629
*CONN
*I inst_14:ZN O
*I TAUGATE_19:A I
*CAP
1 inst_14:ZN 0.1253
2 TAUNET_19:1 0.2343
3 TAUNET_19:2 0.1106
4 TAUNET_19:3 0.0283
5 TAUGATE_19:A 0.2644
*RES
2 inst_14:ZN TAUNET_19:1 0.3395
3 TAUNET_19:1 TAUNET_19:2 0.4160
4 TAUNET_19:2 TAUNET_19:3 0.1311
5 TAUNET_19:3 TAUGATE_19:A 0.1702
*END

*D_NET TAUNET_34 0.8144
*CONN
*I inst_1:Z O
*I TAUGATE_34:A I
*CAP
1 inst_1:Z 0.0383
2 TAUNET_34:1 0.2177
3 TAUNET_34:2 0.0520
4 TAUNET_34:3 0.1787
5 TAUGATE_34:A 0.3277
*RES
2 inst_1:Z TAUNET_34:1 0.2308
3 TAUNET_34:1 TAUNET_34:2 0.1825
4 TAUNET_34:2 TAUNET_34:3 0.4154
5 TAUNET_34:3 TAUGATE_34:A 0.4205
*END

*D_NET TAUNET_54 0.9305
*CONN
*I inst_113:QN O
*I TAUGATE_54:A I
*CAP
1 inst_113:QN 0.3303
2 TAUNET_54:1 0.3450
3 TAUGATE_54:A 0.2552
*RES
2 inst_113:QN TAUNET_54:1 0.2397
3 TAUNET_54:1 TAUGATE_54:A 0.3943
*END

*D_NET TAUNET_44 1.1705
*CONN
*I inst_98:ZN O
*I TAUGATE_44:A I
*CAP
1 inst_98:ZN 0.3586
2 TAUNET_44:1 0.2132
3 TAUNET_44:2 0.3448
4 TAUGATE_44:A 0.2539
*RES
2 inst_98:ZN TAUNET_44:1 0.0169
3 TAUNET_44:1 TAUNET_44:2 0.2910
4 TAUNET_44:2 TAUGATE_44:A 0.3418
*END

*D_NET net_0 1.5852
*CONN
*I TAUGATE_17:Z O
*I inst_127:A2 I
*I inst_77:A I
*CAP
1 TAUGATE_17:Z 0.2232
2 net_0:1 0.3825
3 inst_127:A2 0.4916
4 net_0:2 0.2720
5 net_0:3 0.0605
6 inst_77:A 0.1555
*RES
2 TAUGATE_17:Z net_0:1 0.0258
3 net_0:1 inst_127:A2 0.0722
4 net_0:1 net_0:2 0.4347
5 net_0:2 net_0:3 0.2976
6 net_0:3 inst_77:A 0.3531
*END

*D_NET START 2.7673
*CONN
*I TAUGATE_42:Z O
*I inst_11:A1 I
*I inst_10:A1 I
*I inst_85:A I
*CAP
1 TAUGATE_42:Z 0.1823
2 START:1 0.3163
3 inst_11:A1 0.3515
4 START:2 0.4000
5 START:3 0.0188
6 START:4 0.4709
7 START:5 0.4204
8 inst_10:A1 0.0122
9 START:6 0.2798
10 inst_85:A 0.3150
*RES
2 TAUGATE_42:Z START:1 0.2983
3 START:1 inst_11:A1 0.4269
4 START:1 START:2 0.2688
5 START:2 START:3 0.0936
6 START:3 START:4 0.3051
7 START:4 START:5 0.1197
8 START:5 inst_10:A1 0.2956
9 START:2 START:6 0.0137
10 START:6 inst_85:A 0.2108
*END

*D_NET net_35 3.1048
*CONN
*I TAUGATE_26:Z O
*I inst_70:B I
*I inst_41:A1 I
*I inst_98:A I
*CAP
1 TAUGATE_26:Z 0.0161
2 net_35:1 0.3729
3 net_35:2 0.0610
4 net_35:3 0.4010
5 inst_41:A1 0.2910
6 net_35:4 0.3618
7 net_35:5 0.0820
8 net_35:6 0.2174
9 net_35:7 0.3638
10 inst_70:B 0.4097
11 net_35:8 0.0910
12 net_35:9 0.1278
13 inst_98:A 0.3093
*RES
2 TAUGATE_26:Z net_35:1 0.3768
3 net_35:1 net_35:2 0.3083
4 net_35:2 net_35:3 0.1250
5 net_35:3 inst_41:A1 0.3526
6 net_35:3 net_35:4 0.2418
7 net_35:4 net_35:5 0.4080
8 net_35:5 net_35:6 0.3118
9 net_35:6 net_35:7 0.4981
10 net_35:7 inst_70:B 0.3134
11 net_35:7 net_35:8 0.3342
12 net_35:8 net_35:9 0.2150
13 net_35:9 inst_98:A 0.0109
*END

*D_NET net_22 3.2309
*CONN
*I TAUGATE_55:Z O
*I inst_103:A I
*I inst_3:A1 I
*I inst_13:A2 I
*CAP
1 TAUGATE_55:Z 0.2298
2 net_22:1 0.0044
3 inst_3:A1 0.1986
4 net_22:2 0.2677
5 net_22:3 0.2426
6 net_22:4 0.1466
7 net_22:5 0.2784
8 net_22:6 0.2008
9 inst_103:A 0.3776
10 net_22:7 0.3242
11 net_22:8 0.2336
12 net_22:9 0.3863
13 net_22:10 0.2365
14 inst_13:A2 0.1037
*RES
2 TAUGATE_55:Z net_22:1 0.0476
3 net_22:1 inst_3:A1 0.0521
4 net_22:1 net_22:2 0.2937
5 net_22:2 net_22:3 0.0093
6 net_22:3 net_22:4 0.2822
7 net_22:4 net_22:5 0.4311
8 net_22:5 net_22:6 0.0309
9 net_22:6 inst_103:A 0.1138
10 net_22:5 net_22:7 0.3572
11 net_22:7 net_22:8 0.2211
12 net_22:8 net_22:9 0.2185
13 net_22:9 net_22:10 0.2266
14 net_22:10 inst_13:A2 0.2538
*END

*D_NET TAUNET_43 1.8250
*CONN
*P A3 I
*I TAUGATE_43:A I
*CAP
1 A3 0.4791
2 TAUNET_43:1 0.2444
3 TAUNET_43:2 0.4262
4 TAUNET_43:3 0.3737
5 TAUGATE_43:A 0.3015
*RES
2 A3 TAUNET_43:1 0.1830
3 TAUNET_43:1 TAUNET_43:2 0.3035
4 TAUNET_43:2 TAUNET_43:3 0.4053
5 TAUNET_43:3 TAUGATE_43:A 0.0863
*END

*D_NET TAUNET_56 0.8541
*CONN
*I inst_101:ZN O
*I TAUGATE_56:A I
*CAP
1 inst_101:ZN 0.1365
2 TAUNET_56:1 0.4263
3 TAUGATE_56:A 0.2912
*RES
2 inst_101:ZN TAUNET_56:1 0.1111
3 TAUNET_56:1 TAUGATE_56:A 0.3711
*END

*D_NET TAUNET_55 0.6095
*CONN
*I inst_88:ZN O
*I TAUGATE_55:A I
*CAP
1 inst_88:ZN 0.1351
2 TAUNET_55:1 0.0368
3 TAUGATE_55:A 0.4376
*RES
2 inst_88:ZN TAUNET_55:1 0.1423
3 TAUNET_55:1 TAUGATE_55:A 0.1283
*END

*D_NET TAUNET_11 2.2451
*CONN
*I inst_2:ZN O
*I TAUGATE_11:A I
*CAP
1 inst_2:ZN 0.3234
2 TAUNET_11:1 0.4832
3 TAUNET_11:2 0.2776
4 TAUNET_11:3 0.3781
5 TAUNET_11:4 0.3766
6 TAUNET_11:5 0.0185
7 TAUGATE_11:A 0.3877
*RES
2 inst_2:ZN TAUNET_11:1 0.1588
3 TAUNET_11:1 TAUNET_11:2 0.3738
4 TAUNET_11:2 TAUNET_11:3 0.4556
5 TAUNET_11:3 TAUNET_11:4 0.1835
6 TAUNET_11:4 TAUNET_11:5 0.0020
7 TAUNET_11:5 TAUGATE_11:A 0.2614
*END

*D_NET TAUNET_33 1.4224
*CONN
*I inst_37:ZN O
*I TAUGATE_33:A I
*CAP
1 inst_37:ZN 0.2164
2 TAUNET_33:1 0.1158
3 TAUNET_33:2 0.1153
4 TAUNET_33:3 0.3810
5 TAUNET_33:4 0.1100
6 TAUNET_33:5 0.1662
7 TAUGATE_33:A 0.3178
*RES
2 inst_37:ZN TAUNET_33:1 0.2541
3 TAUNET_33:1 TAUNET_33:2 0.2497
4 TAUNET_33:2 TAUNET_33:3 0.4625
5 TAUNET_33:3 TAUNET_33:4 0.2343
6 TAUNET_33:4 TAUNET_33:5 0.0981
7 TAUNET_33:5 TAUGATE_33:A 0.3461
*END

*D_NET net_92 0.6556
*CONN
*I TAUGATE_39:Z O
*I inst_22:A3 I
*CAP
1 TAUGATE_39:Z 0.4109
2 net_92:1 0.2326
3 inst_22:A3 0.0121
*RES
2 TAUGATE_39:Z net_92:1 0.2674
3 net_92:1 inst_22:A3 0.2072
*END

*D_NET TAUNET_22 1.0250
*CONN
*I TAUGATE_5:Z O
*I TAUGATE_22:A I
*CAP
1 TAUGATE_5:Z 0.2455
2 TAUNET_22:1 0.0138
3 TAUNET_22:2 0.4527
4 TAUGATE_22:A 0.3131
*RES
2 TAUGATE_5:Z TAUNET_22:1 0.4392
3 TAUNET_22:1 TAUNET_22:2 0.4048
4 TAUNET_22:2 TAUGATE_22:A 0.0368
*END

*D_NET TAUNET_41 1.7633
*CONN
*I inst_78:ZN O
*I TAUGATE_41:A I
*CAP
1 inst_78:ZN 0.2266
2 TAUNET_41:1 0.3736
3 TAUNET_41:2 0.3306
4 TAUNET_41:3 0.3042
5 TAUNET_41:4 0.1317
6 TAUNET_41:5 0.1481
7 TAUGATE_41:A 0.2485
*RES
2 inst_78:ZN TAUNET_41:1 0.2201
3 TAUNET_41:1 TAUNET_41:2 0.2966
4 TAUNET_41:2 TAUNET_41:3 0.3013
5 TAUNET_41:3 TAUNET_41:4 0.0758
6 TAUNET_41:4 TAUNET_41:5 0.0262
7 TAUNET_41:5 TAUGATE_41:A 0.3812
*END

*D_NET TAUNET_30 0.5106
*CONN
*P B1 I
*I TAUGATE_30:A I
*CAP
1 B1 0.1550
2 TAUNET_30:1 0.1418
3 TAUGATE_30:A 0.2138
*RES
2 B1 TAUNET_30:1 0.3805
3 TAUNET_30:1 TAUGATE_30:A 0.2523
*END

*D_NET net_39 1.6754
*CONN
*I TAUGATE_45:Z O
*I inst_48:A1 I
*CAP
1 TAUGATE_45:Z 0.4938
2 net_39:1 0.2131
3 net_39:2 0.3201
4 net_39:3 0.0320
5 net_39:4 0.2786
6 inst_48:A1 0.3378
*RES
2 TAUGATE_45:Z net_39:1 0.4364
3 net_39:1 net_39:2 0.2454
4 net_39:2 net_39:3 0.4527
5 net_39:3 net_39:4 0.2663
6 net_39:4 inst_48:A1 0.3641
*END

*D_NET TAUNET_58 1.5675
*CONN
*I inst_23:ZN O
*I TAUGATE_58:A I
*CAP
1 inst_23:ZN 0.2701
2 TAUNET_58:1 0.4105
3 TAUNET_58:2 0.3004
4 TAUNET_58:3 0.3665
5 TAUNET_58:4 0.1341
6 TAUGATE_58:A 0.0859
*RES
2 inst_23:ZN TAUNET_58:1 0.1706
3 TAUNET_58:1 TAUNET_58:2 0.3812
4 TAUNET_58:2 TAUNET_58:3 0.0751
5 TAUNET_58:3 TAUNET_58:4 0.1227
6 TAUNET_58:4 TAUGATE_58:A 0.0294
*END

*D_NET net_42 2.1109
*CONN
*I TAUGATE_32:Z O
*I inst_28:A1 I
*CAP
1 TAUGATE_32:Z 0.3552
2 net_42:1 0.1840
3 net_42:2 0.4010
4 net_42:3 0.3573
5 net_42:4 0.4559
6 inst_28:A1 0.3575
*RES
2 TAUGATE_32:Z net_42:1 0.1715
3 net_42:1 net_42:2 0.3050
4 net_42:2 net_42:3 0.3594
5 net_42:3 net_42:4 0.4902
6 net_42:4 inst_28:A1 0.4716
*END

*D_NET A3 0.8507
*CONN
*I TAUGATE_43:Z O
*I inst_65:A I
*CAP
1 TAUGATE_43:Z 0.1762
2 A3:1 0.1660
3 A3:2 0.2177
4 inst_65:A 0.2908
*RES
2 TAUGATE_43:Z A3:1 0.3318
3 A3:1 A3:2 0.3308
4 A3:2 inst_65:A 0.4080
*END

*D_NET net_51 0.3444
*CONN
*I TAUGATE_59:Z O
*I inst_71:A I
*CAP
1 TAUGATE_59:Z 0.1932
2 net_51:1 0.0053
3 inst_71:A 0.1459
*RES
2 TAUGATE_59:Z net_51:1 0.0437
3 net_51:1 inst_71:A 0.4598
*END

*D_NET TAUNET_52 1.9374
*CONN
*I inst_47:ZN O
*I TAUGATE_52:A I
*CAP
1 inst_47:ZN 0.2033
2 TAUNET_52:1 0.4574
3 TAUNET_52:2 0.4683
4 TAUNET_52:3 0.1543
5 TAUNET_52:4 0.4873
6 TAUGATE_52:A 0.1669
*RES
2 inst_47:ZN TAUNET_52:1 0.4800
3 TAUNET_52:1 TAUNET_52:2 0.4518
4 TAUNET_52:2 TAUNET_52:3 0.0570
5 TAUNET_52:3 TAUNET_52:4 0.4909
6 TAUNET_52:4 TAUGATE_52:A 0.0572
*END

*D_NET TAUNET_59 1.5455
*CONN
*I inst_48:ZN O
*I TAUGATE_59:A I
*CAP
1 inst_48:ZN 0.1013
2 TAUNET_59:1 0.4210
3 TAUNET_59:2 0.2594
4 TAUNET_59:3 0.3565
5 TAUGATE_59:A 0.4074
*RES
2 inst_48:ZN TAUNET_59:1 0.4309
3 TAUNET_59:1 TAUNET_59:2 0.4474
4 TAUNET_59:2 TAUNET_59:3 0.2931
5 TAUNET_59:3 TAUGATE_59:A 0.2848
*END

*D_NET net_65 1.9018
*CONN
*I TAUGATE_11:Z O
*I inst_16:A1 I
*CAP
1 TAUGATE_11:Z 0.3320
2 net_65:1 0.3663
3 net_65:2 0.1512
4 net_65:3 0.1368
5 net_65:4 0.4493
6 inst_16:A1 0.4663
*RES
2 TAUGATE_11:Z net_65:1 0.2866
3 net_65:1 net_65:2 0.1873
4 net_65:2 net_65:3 0.1599
5 net_65:3 net_65:4 0.3589
6 net_65:4 inst_16:A1 0.4697
*END

*D_NET net_50 0.9872
*CONN
*I TAUGATE_52:Z O
*I inst_59:A2 I
*CAP
1 TAUGATE_52:Z 0.0401
2 net_50:1 0.1883
3 net_50:2 0.3075
4 net_50:3 0.0604
5 inst_59:A2 0.3908
*RES
2 TAUGATE_52:Z net_50:1 0.2921
3 net_50:1 net_50:2 0.4162
4 net_50:2 net_50:3 0.1285
5 net_50:3 inst_59:A2 0.0491
*END

*D_NET TAUNET_48 0.9901
*CONN
*I TAUGATE_6:Z O
*I TAUGATE_48:A I
*CAP
1 TAUGATE_6:Z 0.2111
2 TAUNET_48:1 0.1515
3 TAUNET_48:2 0.0492
4 TAUNET_48:3 0.2707
5 TAUNET_48:4 0.0711
6 TAUGATE_48:A 0.2365
*RES
2 TAUGATE_6:Z TAUNET_48:1 0.0021
3 TAUNET_48:1 TAUNET_48:2 0.2080
4 TAUNET_48:2 TAUNET_48:3 0.3529
5 TAUNET_48:3 TAUNET_48:4 0.4886
6 TAUNET_48:4 TAUGATE_48:A 0.3648
*END

*D_NET net_97 1.5829
*CONN
*I TAUGATE_58:Z O
*I inst_125:D I
*CAP
1 TAUGATE_58:Z 0.3187
2 net_97:1 0.0224
3 net_97:2 0.4026
4 net_97:3 0.2784
5 net_97:4 0.1803
6 net_97:5 0.0882
7 inst_125:D 0.2924
*RES
2 TAUGATE_58:Z net_97:1 0.4780
3 net_97:1 net_97:2 0.3510
4 net_97:2 net_97:3 0.1182
5 net_97:3 net_97:4 0.2614
6 net_97:4 net_97:5 0.1530
7 net_97:5 inst_125:D 0.2582
*END

*D_NET TAUNET_42 1.1301
*CONN
*P START I
*I TAUGATE_42:A I
*CAP
1 START 0.0762
2 TAUNET_42:1 0.3922
3 TAUNET_42:2 0.3950
4 TAUGATE_42:A 0.2666
*RES
2 START TAUNET_42:1 0.4255
3 TAUNET_42:1 TAUNET_42:2 0.4671
4 TAUNET_42:2 TAUGATE_42:A 0.2972
*END

*D_NET net_88 3.6181
*CONN
*I TAUGATE_48:Z O
*I inst_64:A2 I
*I inst_17:A1 I
*I inst_108:A I
*I inst_32:A1 I
*CAP
1 TAUGATE_48:Z 0.4880
2 net_88:1 0.3167
3 net_88:2 0.3376
4 net_88:3 0.1073
5 net_88:4 0.3579
6 net_88:5 0.1300
7 inst_32:A1 0.3795
8 net_88:6 0.0541
9 inst_17:A1 0.3700
10 net_88:7 0.0063
11 net_88:8 0.4904
12 inst_108:A 0.0915
13 net_88:9 0.2934
14 net_88:10 0.0661
15 net_88:11 0.0281
16 inst_64:A2 0.1011
*RES
2 TAUGATE_48:Z net_88:1 0.2362
3 net_88:1 net_88:2 0.1908
4 net_88:2 net_88:3 0.1996
5 net_88:3 net_88:4 0.3123
6 net_88:4 net_88:5 0.1251
7 net_88:5 inst_32:A1 0.0048
8 net_88:4 net_88:6 0.3260
9 net_88:6 inst_17:A1 0.3466
10 net_88:6 net_88:7 0.4619
11 net_88:7 net_88:8 0.1065
12 net_88:8 inst_108:A 0.1990
13 net_88:1 net_88:9 0.2539
14 net_88:9 net_88:10 0.0765
15 net_88:10 net_88:11 0.1980
16 net_88:11 inst_64:A2 0.3226
*END

*D_NET TAUNET_18 2.4686
*CONN
*I inst_65:Z O
*I TAUGATE_18:A I
*CAP
1 inst_65:Z 0.2766
2 TAUNET_18:1 0.4267
3 TAUNET_18:2 0.4596
4 TAUNET_18:3 0.3295
5 TAUNET_18:4 0.4724
6 TAUNET_18:5 0.4631
7 TAUGATE_18:A 0.0407
*RES
2 inst_65:Z TAUNET_18:1 0.4130
3 TAUNET_18:1 TAUNET_18:2 0.3462
4 TAUNET_18:2 TAUNET_18:3 0.0714
5 TAUNET_18:3 TAUNET_18:4 0.2110
6 TAUNET_18:4 TAUNET_18:5 0.2588
7 TAUNET_18:5 TAUGATE_18:A 0.0339
*END

*D_NET TAUNET_45 0.9948
*CONN
*I inst_4:ZN O
*I TAUGATE_45:A I
*CAP
1 inst_4:ZN 0.4874
2 TAUNET_45:1 0.2489
3 TAUGATE_45:A 0.2584
*RES
2 inst_4:ZN TAUNET_45:1 0.0346
3 TAUNET_45:1 TAUGATE_45:A 0.4333
*END

*D_NET net_44 2.5632
*CONN
*I TAUGATE_23:Z O
*I inst_55:A1 I
*I inst_91:A I
*CAP
1 TAUGATE_23:Z 0.3416
2 net_44:1 0.1540
3 net_44:2 0.0325
4 net_44:3 0.0924
5 net_44:4 0.1850
6 net_44:5 0.1516
7 inst_55:A1 0.2746
8 net_44:6 0.0580
9 net_44:7 0.3810
10 net_44:8 0.2195
11 net_44:9 0.2042
12 net_44:10 0.2030
13 inst_91:A 0.2656
*RES
2 TAUGATE_23:Z net_44:1 0.4228
3 net_44:1 net_44:2 0.1417
4 net_44:2 net_44:3 0.3754
5 net_44:3 net_44:4 0.2016
6 net_44:4 net_44:5 0.0068
7 net_44:5 inst_55:A1 0.2001
8 net_44:5 net_44:6 0.4413
9 net_44:6 net_44:7 0.1336
10 net_44:7 net_44:8 0.4042
11 net_44:8 net_44:9 0.0451
12 net_44:9 net_44:10 0.2391
13 net_44:10 inst_91:A 0.0321
*END

*D_NET TAUNET_21 1.0327
*CONN
*I inst_34:ZN O
*I TAUGATE_21:A I
*CAP
1 inst_34:ZN 0.0857
2 TAUNET_21:1 0.2245
3 TAUNET_21:2 0.4797
4 TAUNET_21:3 0.0551
5 TAUGATE_21:A 0.1877
*RES
2 inst_34:ZN TAUNET_21:1 0.0973
3 TAUNET_21:1 TAUNET_21:2 0.4235
4 TAUNET_21:2 TAUNET_21:3 0.1903
5 TAUNET_21:3 TAUGATE_21:A 0.2143
*END

*D_NET TAUNET_29 1.8683
*CONN
*I inst_53:ZN O
*I TAUGATE_29:A I
*CAP
1 inst_53:ZN 0.2421
2 TAUNET_29:1 0.2497
3 TAUNET_29:2 0.2766
4 TAUNET_29:3 0.3086
5 TAUNET_29:4 0.2353
6 TAUNET_29:5 0.4838
7 TAUGATE_29:A 0.0722
*RES
2 inst_53:ZN TAUNET_29:1 0.3539
3 TAUNET_29:1 TAUNET_29:2 0.3446
4 TAUNET_29:2 TAUNET_29:3 0.0192
5 TAUNET_29:3 TAUNET_29:4 0.1341
6 TAUNET_29:4 TAUNET_29:5 0.4054
7 TAUNET_29:5 TAUGATE_29:A 0.3681
*END

*D_NET net_19 3.7511
*CONN
*I TAUGATE_47:Z O
*I inst_12:A2 I
*I inst_87:A I
*I inst_0:B I
*CAP
1 TAUGATE_47:Z 0.1561
2 net_19:1 0.0224
3 net_19:2 0.3933
4 inst_0:B 0.2244
5 net_19:3 0.4918
6 net_19:4 0.3583
7 net_19:5 0.0251
8 net_19:6 0.0071
9 inst_87:A 0.2242
10 net_19:7 0.3703
11 net_19:8 0.0365
12 net_19:9 0.4409
13 net_19:10 0.4335
14 net_19:11 0.3158
15 inst_12:A2 0.2513
*RES
2 TAUGATE_47:Z net_19:1 0.4154
3 net_19:1 net_19:2 0.1374
4 net_19:2 inst_0:B 0.1713
5 net_19:1 net_19:3 0.4834
6 net_19:3 net_19:4 0.4589
7 net_19:4 net_19:5 0.0098
8 net_19:5 net_19:6 0.3264
9 net_19:6 inst_87:A 0.2846
10 net_19:2 net_19:7 0.4798
11 net_19:7 net_19:8 0.1640
12 net_19:8 net_19:9 0.1778
13 net_19:9 net_19:10 0.3155
14 net_19:10 net_19:11 0.4909
15 net_19:11 inst_12:A2 0.2285
*END

*D_NET TAUNET_15 1.1883
*CONN
*I inst_105:ZN O
*I TAUGATE_15:A I
*CAP
1 inst_105:ZN 0.4514
2 TAUNET_15:1 0.3442
3 TAUNET_15:2 0.1815
4 TAUGATE_15:A 0.2112
*RES
2 inst_105:ZN TAUNET_15:1 0.3238
3 TAUNET_15:1 TAUNET_15:2 0.1536
4 TAUNET_15:2 TAUGATE_15:A 0.2744
*END

*D_NET net_58 0.2935
*CONN
*I TAUGATE_28:Z O
*I inst_18:A1 I
*CAP
1 TAUGATE_28:Z 0.0682
2 net_58:1 0.2235
3 inst_18:A1 0.0018
*RES
2 TAUGATE_28:Z net_58:1 0.2665
3 net_58:1 inst_18:A1 0.4580
*END

*D_NET B2 1.3311
*CONN
*I TAUGATE_51:Z O
*I inst_5:A1 I
*CAP
1 TAUGATE_51:Z 0.4660
2 B2:1 0.2711
3 B2:2 0.1177
4 B2:3 0.1130
5 B2:4 0.0719
6 inst_5:A1 0.2913
*RES
2 TAUGATE_51:Z B2:1 0.3837
3 B2:1 B2:2 0.4308
4 B2:2 B2:3 0.4593
5 B2:3 B2:4 0.4578
6 B2:4 inst_5:A1 0.1666
*END

*D_NET net_67 1.7192
*CONN