*SPEF "IEEE 1481-1998"
*DESIGN "changes"
*DATE "Tue Dec 02 20:02:39 2014"
*VENDOR "TAU 2015 Contest"
*PROGRAM "Benchmark Parasitic Generator"
*VERSION "0.0"
*DESIGN_FLOW "NETLIST_TYPE_VERILOG"
*DIVIDER /
*DELIMITER :
*BUS_DELIMITER [ ]
*T_UNIT 1 PS
*C_UNIT 1 FF
*R_UNIT 1 KOHM
*L_UNIT 1 UH

*D_NET TAUNET_9 1.7439
*CONN
*P blif_reset_net I
*I TAUGATE_9:A I
*CAP
1 blif_reset_net 0.2611
2 TAUNET_9:1 0.4098
3 TAUNET_9:2 0.5009
4 TAUNET_9:3 0.2843
5 TAUGATE_9:A 0.2878
*RES
2 blif_reset_net TAUNET_9:1 0.1659
3 TAUNET_9:1 TAUNET_9:2 0.2742
4 TAUNET_9:2 TAUNET_9:3 0.3494
5 TAUNET_9:3 TAUGATE_9:A 0.1485
*END

*D_NET net_88 5.3632
*CONN
*I TAUGATE_6:Z O
*I inst_64:A2 I
*I inst_17:A1 I
*I inst_108:A I
*I inst_32:A1 I
*CAP
1 TAUGATE_6:Z 0.2110
2 net_88:1 0.3070
3 net_88:2 0.3583
4 net_88:3 0.1395
5 net_88:4 0.0646
6 net_88:5 0.0794
7 inst_108:A 0.2161
8 net_88:6 0.2440
9 net_88:7 0.0332
10 inst_17:A1 0.0406
11 net_88:8 0.3706
12 net_88:9 0.0740
13 net_88:10 0.4871
14 inst_64:A2 0.4951
15 net_88:11 0.3356
16 net_88:12 0.3995
17 net_88:13 0.3845
18 net_88:14 0.4708
19 net_88:15 0.3056
20 inst_32:A1 0.3464
*RES
2 TAUGATE_6:Z net_88:1 0.1614
3 net_88:1 net_88:2 0.3312
4 net_88:2 net_88:3 0.3755
5 net_88:3 net_88:4 0.4644
6 net_88:4 net_88:5 0.4559
7 net_88:5 inst_108:A 0.4050
8 net_88:2 net_88:6 0.2732
9 net_88:6 net_88:7 0.0073
10 net_88:7 inst_17:A1 0.1308
11 net_88:2 net_88:8 0.4125
12 net_88:8 net_88:9 0.0565
13 net_88:9 net_88:10 0.1285
14 net_88:10 inst_64:A2 0.0292
15 net_88:7 net_88:11 0.0305
16 net_88:11 net_88:12 0.2383
17 net_88:12 net_88:13 0.4020
18 net_88:13 net_88:14 0.2529
19 net_88:14 net_88:15 0.2665
20 net_88:15 inst_32:A1 0.4354
*END

*D_NET TAUNET_5 1.2788
*CONN
*I inst_8:ZN O
*I TAUGATE_5:A I
*CAP
1 inst_8:ZN 0.0788
2 TAUNET_5:1 0.3833
3 TAUNET_5:2 0.3292
4 TAUNET_5:3 0.0716
5 TAUNET_5:4 0.2236
6 TAUGATE_5:A 0.1922
*RES
2 inst_8:ZN TAUNET_5:1 0.2805
3 TAUNET_5:1 TAUNET_5:2 0.1322
4 TAUNET_5:2 TAUNET_5:3 0.1905
5 TAUNET_5:3 TAUNET_5:4 0.4017
6 TAUNET_5:4 TAUGATE_5:A 0.4680
*END

*D_NET TAUNET_8 1.2308
*CONN
*I inst_16:ZN O
*I TAUGATE_8:A I
*CAP
1 inst_16:ZN 0.2331
2 TAUNET_8:1 0.3943
3 TAUNET_8:2 0.2211
4 TAUNET_8:3 0.1955
5 TAUGATE_8:A 0.1868
*RES
2 inst_16:ZN TAUNET_8:1 0.4889
3 TAUNET_8:1 TAUNET_8:2 0.0703
4 TAUNET_8:2 TAUNET_8:3 0.3298
5 TAUNET_8:3 TAUGATE_8:A 0.4131
*END

*D_NET CNTVCO2 2.6155
*CONN
*I TAUGATE_5:Z O
*P CNTVCO2 O
*I inst_105:A I
*CAP
1 TAUGATE_5:Z 0.2621
2 CNTVCO2:1 0.1808
3 CNTVCO2:2 0.0717
4 CNTVCO2:3 0.3990
5 CNTVCO2:4 0.4035
6 CNTVCO2:5 0.0219
7 inst_105:A 0.0830
8 CNTVCO2:6 0.4382
9 CNTVCO2:7 0.3498
10 CNTVCO2 0.4055
*RES
2 TAUGATE_5:Z CNTVCO2:1 0.4539
3 CNTVCO2:1 CNTVCO2:2 0.1250
4 CNTVCO2:2 CNTVCO2:3 0.3196
5 CNTVCO2:3 CNTVCO2:4 0.4976
6 CNTVCO2:4 CNTVCO2:5 0.3591
7 CNTVCO2:5 inst_105:A 0.2780
8 CNTVCO2:2 CNTVCO2:6 0.4519
9 CNTVCO2:6 CNTVCO2:7 0.4658
10 CNTVCO2:7 CNTVCO2 0.3690
*END

*D_NET net_86 1.3701
*CONN
*I TAUGATE_8:Z O
*I inst_18:A3 I
*CAP
1 TAUGATE_8:Z 0.0632
2 net_86:1 0.4700
3 net_86:2 0.3789
4 net_86:3 0.3545
5 inst_18:A3 0.1033
*RES
2 TAUGATE_8:Z net_86:1 0.4316
3 net_86:1 net_86:2 0.1782
4 net_86:2 net_86:3 0.4734
5 net_86:3 inst_18:A3 0.0376
*END

*D_NET READY 11.0253
*CONN
*I TAUGATE_7:Z O
*P READY O
*I inst_6:A2 I
*I inst_40:A2 I
*I inst_5:A2 I
*I inst_42:A2 I
*I inst_41:A2 I
*I inst_4:A2 I
*I inst_7:A2 I
*I inst_39:A2 I
*CAP
1 TAUGATE_7:Z 0.3594
2 READY:1 0.3248
3 inst_6:A2 0.2597
4 READY:2 0.2980
5 READY:3 0.2454
6 READY:4 0.4670
7 READY:5 0.1921
8 READY 0.1376
9 READY:6 0.4004
10 READY:7 0.4814
11 READY:8 0.1341
12 READY:9 0.3915
13 READY:10 0.0282
14 inst_40:A2 0.3089
15 READY:11 0.0666
16 READY:12 0.3854
17 READY:13 0.3580
18 inst_5:A2 0.3774
19 READY:14 0.0112
20 READY:15 0.3530
21 inst_42:A2 0.1128
22 READY:16 0.1620
23 READY:17 0.0029
24 READY:18 0.2883
25 READY:19 0.1903
26 inst_41:A2 0.4381
27 READY:20 0.4104
28 inst_4:A2 0.0649
29 READY:21 0.1076
30 READY:22 0.4606
31 READY:23 0.3388
32 READY:24 0.4657
33 READY:25 0.3595
34 inst_7:A2 0.2471
35 READY:26 0.3882
36 READY:27 0.4950
37 READY:28 0.0413
38 READY:29 0.4651
39 inst_39:A2 0.4065
*RES
2 TAUGATE_7:Z READY:1 0.1267
3 READY:1 inst_6:A2 0.3840
4 READY:1 READY:2 0.4443
5 READY:2 READY:3 0.1288
6 READY:3 READY:4 0.3022
7 READY:4 READY:5 0.1405
8 READY:5 READY 0.0668
9 READY:4 READY:6 0.0253
10 READY:6 READY:7 0.3105
11 READY:7 READY:8 0.1881
12 READY:8 READY:9 0.2034
13 READY:9 READY:10 0.1592
14 READY:10 inst_40:A2 0.3147
15 READY:8 READY:11 0.2731
16 READY:11 READY:12 0.1525
17 READY:12 READY:13 0.0518
18 READY:13 inst_5:A2 0.2548
19 READY:4 READY:14 0.2239
20 READY:14 READY:15 0.0917
21 READY:15 inst_42:A2 0.4230
22 READY:5 READY:16 0.3484
23 READY:16 READY:17 0.0801
24 READY:17 READY:18 0.1392
25 READY:18 READY:19 0.1891
26 READY:19 inst_41:A2 0.0464
27 READY:1 READY:20 0.0510
28 READY:20 inst_4:A2 0.1600
29 READY:7 READY:21 0.0832
30 READY:21 READY:22 0.0580
31 READY:22 READY:23 0.3736
32 READY:23 READY:24 0.0395
33 READY:24 READY:25 0.3644
34 READY:25 inst_7:A2 0.0829
35 READY:24 READY:26 0.3164
36 READY:26 READY:27 0.3513
37 READY:27 READY:28 0.1165
38 READY:28 READY:29 0.0986
39 READY:29 inst_39:A2 0.2243
*END

*D_NET TAUNET_6 1.4701
*CONN
*I inst_31:ZN O
*I TAUGATE_6:A I
*CAP
1 inst_31:ZN 0.4269
2 TAUNET_6:1 0.2195
3 TAUNET_6:2 0.1533
4 TAUNET_6:3 0.4091
5 TAUGATE_6:A 0.2613
*RES
2 inst_31:ZN TAUNET_6:1 0.3587
3 TAUNET_6:1 TAUNET_6:2 0.1869
4 TAUNET_6:2 TAUNET_6:3 0.4974
5 TAUNET_6:3 TAUGATE_6:A 0.3047
*END

*D_NET blif_reset_net 0.7999
*CONN
*I TAUGATE_9:Z O
*I inst_109:A I
*CAP
1 TAUGATE_9:Z 0.4969
2 blif_reset_net:1 0.1733
3 blif_reset_net:2 0.1014
4 inst_109:A 0.0283
*RES
2 TAUGATE_9:Z blif_reset_net:1 0.2763
3 blif_reset_net:1 blif_reset_net:2 0.2945
4 blif_reset_net:2 inst_109:A 0.3177
*END

*D_NET TAUNET_7 1.2585
*CONN
*I TAUGATE_4:Z O
*I TAUGATE_7:A I
*CAP
1 TAUGATE_4:Z 0.3390
2 TAUNET_7:1 0.3404
3 TAUNET_7:2 0.1317
4 TAUNET_7:3 0.3617
5 TAUGATE_7:A 0.0856
*RES
2 TAUGATE_4:Z TAUNET_7:1 0.3629
3 TAUNET_7:1 TAUNET_7:2 0.2821
4 TAUNET_7:2 TAUNET_7:3 0.3900
5 TAUNET_7:3 TAUGATE_7:A 0.0557
*END

