*SPEF "IEEE 1481-1998"
*DESIGN "s344"
*DATE "Tue Nov 25 16:55:04 2014"
*VENDOR "TAU 2015 Contest"
*PROGRAM "Benchmark Parasitic Generator"
*VERSION "0.0"
*DESIGN_FLOW "NETLIST_TYPE_VERILOG"
*DIVIDER /
*DELIMITER :
*BUS_DELIMITER [ ]
*T_UNIT 1 PS
*C_UNIT 1 FF
*R_UNIT 1 KOHM
*L_UNIT 1 UH

*D_NET net_166 0.8291
*CONN
*I inst_177:Z O
*I inst_178:A I
*CAP
1 inst_177:Z 0.0565
2 net_166:1 0.0292
3 net_166:2 0.2926
4 inst_178:A 0.4507
*RES
2 inst_177:Z net_166:1 0.3356
3 net_166:1 net_166:2 0.3995
4 net_166:2 inst_178:A 0.3845
*END

*D_NET net_107 0.1748
*CONN
*I inst_21:ZN O
*I inst_23:A1 I
*CAP
1 inst_21:ZN 0.0166
2 inst_23:A1 0.0166
3 net_107:1 0.0253
4 net_107:2 0.0253
5 net_107:3 0.0273
6 net_107:4 0.0273
7 net_107:5 0.0181
8 net_107:6 0.0181
*RES
2 inst_21:ZN net_107:6 0.0050
3 net_107:1 inst_23:A1 0.0050
4 net_107:2 net_107:1 0.0020
5 net_107:3 net_107:2 0.0050
6 net_107:3 net_107:4 0.0020
7 net_107:5 net_107:4 0.0050
8 net_107:6 net_107:5 0.0010
*END

*D_NET net_47 0.7181
*CONN
*I inst_37:ZN O
*I inst_45:A2 I
*I inst_9:A2 I
*I inst_17:A2 I
*CAP
1 inst_37:ZN 0.0166
2 inst_45:A2 0.0166
3 inst_9:A2 0.0166
4 inst_17:A2 0.0166
5 net_47:1 0.0152
6 net_47:2 0.0314
7 net_47:3 0.0698
8 net_47:4 0.0460
9 net_47:5 0.0161
10 net_47:6 0.0606
11 net_47:7 0.0277
12 net_47:8 0.0277
13 net_47:9 0.0178
14 net_47:10 0.0178
15 net_47:11 0.1309
16 net_47:12 0.1309
17 net_47:13 0.0597
*RES
2 net_47:1 inst_45:A2 0.0050
3 net_47:2 net_47:1 0.0050
4 net_47:3 net_47:2 0.0014
5 net_47:3 net_47:8 0.0050
6 net_47:4 net_47:3 0.0034
7 net_47:5 net_47:4 0.0050
8 net_47:5 net_47:6 0.0010
9 net_47:6 inst_9:A2 0.0050
10 net_47:6 net_47:13 0.0075
11 net_47:7 inst_17:A2 0.0050
12 net_47:7 net_47:8 0.0015
13 net_47:9 inst_37:ZN 0.0050
14 net_47:10 net_47:9 0.0010
15 net_47:11 net_47:10 0.0050
16 net_47:11 net_47:12 0.0129
17 net_47:13 net_47:12 0.0050
*END

*D_NET net_159 2.0360
*CONN
*I inst_170:Z O
*I inst_171:A I
*CAP
1 inst_170:Z 0.4017
2 net_159:1 0.2976
3 net_159:2 0.2331
4 net_159:3 0.2927
5 net_159:4 0.3943
6 net_159:5 0.2211
7 inst_171:A 0.1955
*RES
2 inst_170:Z net_159:1 0.1868
3 net_159:1 net_159:2 0.4889
4 net_159:2 net_159:3 0.0703
5 net_159:3 net_159:4 0.3298
6 net_159:4 net_159:5 0.4131
7 net_159:5 inst_171:A 0.3310
*END

*D_NET net_61 0.1273
*CONN
*I inst_53:ZN O
*I inst_22:A1 I
*CAP
1 inst_53:ZN 0.0166
2 inst_22:A1 0.0166
3 net_61:1 0.0152
4 net_61:2 0.0318
5 net_61:3 0.0318
6 net_61:4 0.0152
*RES
2 inst_53:ZN net_61:4 0.0050
3 net_61:1 inst_22:A1 0.0050
4 net_61:2 net_61:1 0.0050
5 net_61:3 net_61:2 0.0027
6 net_61:4 net_61:3 0.0050
*END

*D_NET net_137 2.1062
*CONN
*I inst_148:Z O
*I inst_149:A I
*CAP
1 inst_148:Z 0.3196
2 net_137:1 0.3591
3 net_137:2 0.2780
4 net_137:3 0.2022
5 net_137:4 0.1593
6 net_137:5 0.4382
7 inst_149:A 0.3498
*RES
2 inst_148:Z net_137:1 0.4055
3 net_137:1 net_137:2 0.4519
4 net_137:2 net_137:3 0.4658
5 net_137:3 net_137:4 0.3690
6 net_137:4 net_137:5 0.4019
7 net_137:5 inst_149:A 0.0632
*END

*D_NET net_132 2.0111
*CONN
*I inst_143:Z O
*I inst_144:A I
*CAP
1 inst_143:Z 0.4700
2 net_132:1 0.3545
3 net_132:2 0.1033
4 net_132:3 0.4316
5 net_132:4 0.1782
6 inst_144:A 0.4734
*RES
2 inst_143:Z net_132:1 0.0376
3 net_132:1 net_132:2 0.0972
4 net_132:2 net_132:3 0.3594
5 net_132:3 net_132:4 0.0525
6 net_132:4 inst_144:A 0.3248
*END

*D_NET net_54 0.3664
*CONN
*I inst_14:ZN O
*I inst_63:A1 I
*CAP
1 inst_14:ZN 0.0166
2 inst_63:A1 0.0166
3 net_54:1 0.0152
4 net_54:2 0.1410
5 net_54:3 0.1410
6 net_54:4 0.0180
7 net_54:5 0.0180
*RES
2 inst_63:A1 net_54:5 0.0050
3 net_54:1 inst_14:ZN 0.0050
4 net_54:2 net_54:1 0.0050
5 net_54:2 net_54:3 0.0068
6 net_54:4 net_54:3 0.0050
7 net_54:4 net_54:5 0.0010
*END

*D_NET net_105 0.3935
*CONN
*I inst_34:ZN O
*I inst_21:A1 I
*CAP
1 inst_34:ZN 0.0166
2 inst_21:A1 0.0166
3 net_105:1 0.0186
4 net_105:2 0.0186
5 net_105:3 0.1442
6 net_105:4 0.1442
7 net_105:5 0.0173
8 net_105:6 0.0173
*RES
2 inst_21:A1 net_105:6 0.0050
3 net_105:1 inst_34:ZN 0.0050
4 net_105:1 net_105:2 0.0010
5 net_105:3 net_105:2 0.0050
6 net_105:4 net_105:3 0.0102
7 net_105:5 net_105:4 0.0050
8 net_105:6 net_105:5 0.0010
*END

*D_NET net_62 1.7859
*CONN
*I inst_27:ZN O
*I inst_92:A I
*I inst_51:A2 I
*I inst_52:A2 I
*I inst_53:A2 I
*I inst_54:A2 I
*I inst_59:A1 I
*CAP
1 inst_27:ZN 0.0332
2 inst_92:A 0.0072
3 inst_51:A2 0.0166
4 inst_52:A2 0.0166
5 inst_53:A2 0.0166
6 inst_54:A2 0.0228
7 inst_59:A1 0.0166
8 net_62:1 0.0155
9 net_62:2 0.0449
10 net_62:3 0.0487
11 net_62:4 0.1080
12 net_62:5 0.1080
13 net_62:6 0.0152
14 net_62:7 0.0152
15 net_62:8 0.0208
16 net_62:9 0.0721
17 net_62:10 0.0548
18 net_62:11 0.1122
19 net_62:12 0.0688
20 net_62:13 0.0913
21 net_62:14 0.0913
22 net_62:15 0.0152
23 net_62:16 0.0152
24 net_62:17 0.0612
25 net_62:18 0.0837
26 net_62:19 0.0301
27 net_62:20 0.0152
28 net_62:21 0.0589
29 net_62:22 0.0446
30 net_62:23 0.0446
31 net_62:24 0.0083
32 net_62:25 0.0083
33 net_62:26 0.1865
34 net_62:27 0.1865
35 net_62:28 0.0311
*RES
2 inst_27:ZN net_62:16 0.0050
3 inst_54:A2 net_62:28 0.0031
4 net_62:1 inst_92:A 0.0010
5 net_62:2 net_62:1 0.0050
6 net_62:2 net_62:3 0.0030
7 net_62:3 net_62:4 0.0050
8 net_62:4 net_62:5 0.0102
9 net_62:5 net_62:6 0.0050
10 net_62:6 inst_59:A1 0.0050
11 net_62:7 inst_51:A2 0.0050
12 net_62:8 net_62:7 0.0050
13 net_62:9 net_62:8 0.0014
14 net_62:10 net_62:9 0.0050
15 net_62:10 net_62:11 0.0070
16 net_62:11 net_62:12 0.0085
17 net_62:12 net_62:13 0.0050
18 net_62:13 net_62:14 0.0102
19 net_62:14 net_62:15 0.0050
20 net_62:15 inst_27:ZN 0.0050
21 net_62:16 net_62:17 0.0050
22 net_62:17 net_62:18 0.0054
23 net_62:18 net_62:19 0.0021
24 net_62:18 net_62:27 0.0050
25 net_62:19 net_62:2 0.0050
26 net_62:20 inst_52:A2 0.0050
27 net_62:21 net_62:9 0.0041
28 net_62:21 net_62:20 0.0050
29 net_62:22 inst_53:A2 0.0050
30 net_62:22 net_62:23 0.0030
31 net_62:24 net_62:23 0.0050
32 net_62:25 net_62:24 0.0010
33 net_62:26 net_62:25 0.0050
34 net_62:26 net_62:27 0.0057
35 net_62:28 net_62:11 0.0050
*END

*D_NET P3 0.7578
*CONN
*I inst_98:ZN O
*P P3 O
*CAP
1 P3 0.0127
2 inst_98:ZN 0.1210
3 P3:1 0.1293
4 P3:2 0.0407
5 P3:3 0.0407
6 P3:4 0.1858
7 P3:5 0.1889
8 P3:6 0.0183
9 P3:7 0.0203
*RES
2 inst_98:ZN P3:1 0.0124
3 P3:2 P3:1 0.0050
4 P3:2 P3:3 0.0035
5 P3:4 P3:3 0.0050
6 P3:4 P3:5 0.0197
7 P3:5 P3:6 0.0010
8 P3:7 P3 0.0010
9 P3:7 P3:6 0.0050
*END

*D_NET net_6 0.1208
*CONN
*I inst_116:QN O
*I inst_94:A I
*CAP
1 inst_94:A 0.0166
2 inst_116:QN 0.0166
3 net_6:1 0.0152
4 net_6:2 0.0199
5 net_6:3 0.0199
6 net_6:4 0.0163
7 net_6:5 0.0163
*RES
2 inst_116:QN net_6:5 0.0050
3 net_6:1 inst_94:A 0.0050
4 net_6:2 net_6:1 0.0050
5 net_6:3 net_6:2 0.0014
6 net_6:4 net_6:3 0.0050
7 net_6:5 net_6:4 0.0010
*END

*D_NET net_129 3.3841
*CONN
*I inst_140:Z O
*I inst_141:A I
*I inst_150:A I
*CAP
1 inst_140:Z 0.1076
2 net_129:1 0.3388
3 net_129:2 0.4657
4 net_129:3 0.3595
5 net_129:4 0.2471
6 net_129:5 0.0832
7 inst_150:A 0.0580
8 net_129:6 0.4950
9 net_129:7 0.0413
10 net_129:8 0.4651
11 net_129:9 0.4065
12 inst_141:A 0.3164
*RES
2 inst_140:Z net_129:1 0.3736
3 net_129:1 net_129:2 0.0395
4 net_129:2 net_129:3 0.3644
5 net_129:3 net_129:4 0.0829
6 net_129:4 net_129:5 0.1977
7 net_129:5 inst_150:A 0.4694
8 net_129:5 net_129:6 0.3513
9 net_129:6 net_129:7 0.1165
10 net_129:7 net_129:8 0.0986
11 net_129:8 net_129:9 0.2243
12 net_129:9 inst_141:A 0.1286
*END

*D_NET net_119 2.9324
*CONN
*I inst_130:Z O
*I inst_131:A I
*I inst_160:A I
*CAP
1 inst_130:Z 0.2046
2 net_119:1 0.1317
3 net_119:2 0.3617
4 net_119:3 0.0856
5 net_119:4 0.3629
6 inst_160:A 0.2821
7 net_119:5 0.2907
8 net_119:6 0.0362
9 net_119:7 0.4966
10 net_119:8 0.4101
11 inst_131:A 0.2702
*RES
2 inst_130:Z net_119:1 0.3900
3 net_119:1 net_119:2 0.0557
4 net_119:2 net_119:3 0.1253
5 net_119:3 net_119:4 0.2716
6 net_119:4 inst_160:A 0.3735
7 net_119:1 net_119:5 0.2135
8 net_119:5 net_119:6 0.0419
9 net_119:6 net_119:7 0.2773
10 net_119:7 net_119:8 0.0903
11 net_119:8 inst_131:A 0.0485
*END

*D_NET net_98 0.2023
*CONN
*I inst_28:ZN O
*I inst_29:A1 I
*CAP
1 inst_28:ZN 0.0166
2 inst_29:A1 0.0143
3 net_98:1 0.0513
4 net_98:2 0.0536
5 net_98:3 0.0209
6 net_98:4 0.0187
7 net_98:5 0.0268
*RES
2 net_98:1 inst_28:ZN 0.0050
3 net_98:2 net_98:1 0.0050
4 net_98:2 net_98:3 0.0010
5 net_98:4 net_98:3 0.0010
6 net_98:5 inst_29:A1 0.0021
7 net_98:5 net_98:4 0.0050
*END

*D_NET net_23 0.6295
*CONN
*I inst_94:ZN O
*I inst_35:A1 I
*I inst_66:B I
*CAP
1 inst_94:ZN 0.0332
2 inst_35:A1 0.0166
3 inst_66:B 0.0072
4 net_23:1 0.0800
5 net_23:2 0.0838
6 net_23:3 0.0632
7 net_23:4 0.0632
8 net_23:5 0.0319
9 net_23:6 0.0319
10 net_23:7 0.0491
11 net_23:8 0.0491
12 net_23:9 0.0449
13 net_23:10 0.0449
14 net_23:11 0.0152
15 net_23:12 0.0155
*RES
2 inst_94:ZN net_23:6 0.0050
3 inst_66:B net_23:12 0.0010
4 net_23:1 inst_35:A1 0.0050
5 net_23:1 net_23:2 0.0105
6 net_23:3 net_23:2 0.0050
7 net_23:4 net_23:3 0.0034
8 net_23:5 net_23:4 0.0050
9 net_23:5 net_23:6 0.0020
10 net_23:7 inst_94:ZN 0.0050
11 net_23:7 net_23:8 0.0040
12 net_23:9 net_23:8 0.0050
13 net_23:10 net_23:9 0.0068
14 net_23:11 net_23:10 0.0050
15 net_23:12 net_23:11 0.0050
*END

*D_NET P5 0.4936
*CONN
*I inst_101:ZN O
*P P5 O
*CAP
1 P5 0.2328
2 inst_101:ZN 0.0166
3 P5:1 0.2442
*RES
2 P5 P5:1 0.0191
3 P5:1 inst_101:ZN 0.0050
*END

*D_NET net_117 0.3394
*CONN
*I inst_19:ZN O
*I inst_20:A2 I
*CAP
1 inst_19:ZN 0.0166
2 inst_20:A2 0.0166
3 net_117:1 0.0636
4 net_117:2 0.0636
5 net_117:3 0.0384
6 net_117:4 0.0343
7 net_117:5 0.0531
8 net_117:6 0.0531
*RES
2 inst_20:A2 net_117:6 0.0050
3 net_117:1 inst_19:ZN 0.0050
4 net_117:1 net_117:2 0.0050
5 net_117:3 net_117:2 0.0050
6 net_117:4 net_117:3 0.0031
7 net_117:5 net_117:4 0.0050
8 net_117:5 net_117:6 0.0045
*END

*D_NET net_12 0.1317
*CONN
*I inst_119:QN O
*I inst_84:A I
*CAP
1 inst_84:A 0.0166
2 inst_119:QN 0.0166
3 net_12:1 0.0152
4 net_12:2 0.0238
5 net_12:3 0.0238
6 net_12:4 0.0178
7 net_12:5 0.0178
*RES
2 inst_119:QN net_12:5 0.0050
3 net_12:1 inst_84:A 0.0050
4 net_12:2 net_12:1 0.0050
5 net_12:3 net_12:2 0.0014
6 net_12:4 net_12:3 0.0050
7 net_12:5 net_12:4 0.0010
*END

*D_NET B1 1.1203
*CONN
*P B1 I
*I inst_6:A1 I
*CAP
1 B1 0.0010
2 inst_6:A1 0.0072
3 B1:1 0.0124
4 B1:2 0.0136
5 B1:3 0.0114
6 B1:4 0.2750
7 B1:5 0.2771
8 B1:6 0.2554
9 B1:7 0.2516
10 B1:8 0.0155
*RES
2 inst_6:A1 B1:8 0.0010
3 B1:1 B1 0.0010
4 B1:2 B1:1 0.0050
5 B1:3 B1:2 0.0010
6 B1:4 B1:3 0.0010
7 B1:5 B1:4 0.0170
8 B1:6 B1:5 0.0050
9 B1:7 B1:6 0.0255
10 B1:8 B1:7 0.0050
*END

*D_NET net_151 1.0064
*CONN
*I inst_162:Z O
*I inst_116:CK I
*CAP
1 inst_162:Z 0.1554
2 net_151:1 0.4380
3 inst_116:CK 0.4130
*RES
2 inst_162:Z net_151:1 0.4990
3 net_151:1 inst_116:CK 0.2134
*END

*D_NET net_74 0.2782
*CONN
*I inst_11:ZN O
*I inst_117:D I
*CAP
1 inst_11:ZN 0.0166
2 inst_117:D 0.0143
3 net_74:1 0.0178
4 net_74:2 0.0178
5 net_74:3 0.0869
6 net_74:4 0.0869
7 net_74:5 0.0152
8 net_74:6 0.0226
*RES
2 inst_117:D net_74:6 0.0021
3 net_74:1 inst_11:ZN 0.0050
4 net_74:1 net_74:2 0.0010
5 net_74:3 net_74:2 0.0050
6 net_74:4 net_74:3 0.0075
7 net_74:5 net_74:4 0.0050
8 net_74:6 net_74:5 0.0050
*END

*D_NET net_53 0.2352
*CONN
*I inst_50:ZN O
*I inst_69:A I
*CAP
1 inst_50:ZN 0.0166
2 inst_69:A 0.0166
3 net_53:1 0.0454
4 net_53:2 0.0439
5 net_53:3 0.0575
6 net_53:4 0.0552
*RES
2 inst_69:A net_53:4 0.0050
3 net_53:1 inst_50:ZN 0.0050
4 net_53:2 net_53:1 0.0040
5 net_53:3 net_53:2 0.0010
6 net_53:4 net_53:3 0.0045
*END

*D_NET net_93 0.7126
*CONN
*I inst_20:ZN O
*I inst_123:D I
*CAP
1 inst_20:ZN 0.0166
2 inst_123:D 0.0166
3 net_93:1 0.0422
4 net_93:2 0.0422
5 net_93:3 0.2802
6 net_93:4 0.2802
7 net_93:5 0.0172
8 net_93:6 0.0172
*RES
2 inst_123:D net_93:6 0.0050
3 net_93:1 inst_20:ZN 0.0050
4 net_93:2 net_93:1 0.0025
5 net_93:3 net_93:2 0.0050
6 net_93:4 net_93:3 0.0197
7 net_93:5 net_93:4 0.0050
8 net_93:6 net_93:5 0.0010
*END

*D_NET net_168 1.5058
*CONN
*I inst_179:Z O
*I inst_180:A I
*CAP
1 inst_179:Z 0.3621
2 net_168:1 0.3490
3 net_168:2 0.4751
4 inst_180:A 0.3195
*RES
2 inst_179:Z net_168:1 0.4748
3 net_168:1 net_168:2 0.2505
4 net_168:2 inst_180:A 0.2036
*END

*D_NET net_135 1.2849
*CONN
*I inst_146:Z O
*I inst_147:A I
*CAP
1 inst_146:Z 0.0185
2 net_135:1 0.2437
3 net_135:2 0.3641
4 net_135:3 0.1411
5 net_135:4 0.2452
6 inst_147:A 0.2723
*RES
2 inst_146:Z net_135:1 0.2079
3 net_135:1 net_135:2 0.2449
4 net_135:2 net_135:3 0.0406
5 net_135:3 net_135:4 0.0917
6 net_135:4 inst_147:A 0.0078
*END

*D_NET net_130 0.9828
*CONN
*I inst_141:Z O
*I inst_122:CK I
*CAP
1 inst_141:Z 0.0209
2 net_130:1 0.1067
3 net_130:2 0.4881
4 inst_122:CK 0.3672
*RES
2 inst_141:Z net_130:1 0.4629
3 net_130:1 net_130:2 0.1157
4 net_130:2 inst_122:CK 0.1901
*END

*D_NET net_147 1.3785
*CONN
*I inst_158:Z O
*I inst_118:CK I
*CAP
1 inst_158:Z 0.3676
2 net_147:1 0.4423
3 net_147:2 0.1159
4 inst_118:CK 0.4527
*RES
2 inst_158:Z net_147:1 0.1465
3 net_147:1 net_147:2 0.1463
4 net_147:2 inst_118:CK 0.4621
*END

*D_NET net_127 0.7321
*CONN
*I inst_138:Z O
*I inst_139:A I
*CAP
1 inst_138:Z 0.1222
2 net_127:1 0.1692
3 inst_139:A 0.4407
*RES
2 inst_138:Z net_127:1 0.4978
3 net_127:1 inst_139:A 0.2563
*END

*D_NET net_14 0.0152
*CONN
*I inst_87:ZN O
*I inst_8:A1 I
*CAP
1 inst_87:ZN 0.0076
2 inst_8:A1 0.0076
*RES
2 inst_87:ZN inst_8:A1 0.0010
*END

*D_NET P1 0.8945
*CONN
*I inst_96:ZN O
*P P1 O
*CAP
1 P1 0.0152
2 inst_96:ZN 0.0296
3 P1:1 0.0379
4 P1:2 0.2121
5 P1:3 0.2121
6 P1:4 0.1938
7 P1:5 0.1938
*RES
2 P1 P1:5 0.0050
3 inst_96:ZN P1:1 0.0031
4 P1:2 P1:1 0.0050
5 P1:3 P1:2 0.0181
6 P1:4 P1:3 0.0050
7 P1:4 P1:5 0.0206
*END

*D_NET net_113 0.6048
*CONN
*I inst_93:ZN O
*I inst_44:A1 I
*I inst_14:A1 I
*I inst_2:A3 I
*CAP
1 inst_93:ZN 0.0104
2 inst_44:A1 0.0166
3 inst_14:A1 0.0166
4 inst_2:A3 0.0166
5 net_113:1 0.0414
6 net_113:2 0.0414
7 net_113:3 0.1029
8 net_113:4 0.1616
9 net_113:5 0.0152
10 net_113:6 0.0253
11 net_113:7 0.0447
12 net_113:8 0.0663
13 net_113:9 0.0187
14 net_113:10 0.0270
*RES
2 inst_93:ZN net_113:9 0.0010
3 net_113:1 inst_44:A1 0.0050
4 net_113:2 net_113:1 0.0025
5 net_113:3 net_113:2 0.0050
6 net_113:4 net_113:3 0.0041
7 net_113:4 net_113:5 0.0050
8 net_113:5 inst_14:A1 0.0050
9 net_113:6 inst_2:A3 0.0050
10 net_113:6 net_113:7 0.0020
11 net_113:7 net_113:10 0.0020
12 net_113:7 net_113:8 0.0050
13 net_113:8 net_113:4 0.0034
14 net_113:10 net_113:9 0.0050
*END

*D_NET net_26 0.9161
*CONN
*I inst_95:ZN O
*I inst_37:A1 I
*I inst_65:B I
*CAP
1 inst_95:ZN 0.0265
2 inst_37:A1 0.0166
3 inst_65:B 0.0072
4 net_26:1 0.0831
5 net_26:2 0.0831
6 net_26:3 0.0271
7 net_26:4 0.0271
8 net_26:5 0.0152
9 net_26:6 0.0182
10 net_26:7 0.0152
11 net_26:8 0.2738
12 net_26:9 0.2738
13 net_26:10 0.0169
14 net_26:11 0.0169
15 net_26:12 0.0155
*RES
2 inst_95:ZN net_26:6 0.0010
3 inst_65:B net_26:12 0.0010
4 net_26:1 inst_37:A1 0.0050
5 net_26:1 net_26:2 0.0070
6 net_26:3 net_26:2 0.0050
7 net_26:4 net_26:3 0.0014
8 net_26:5 net_26:4 0.0050
9 net_26:6 net_26:5 0.0050
10 net_26:7 inst_95:ZN 0.0050
11 net_26:8 net_26:7 0.0050
12 net_26:9 net_26:8 0.0163
13 net_26:10 net_26:9 0.0050
14 net_26:11 net_26:10 0.0010
15 net_26:12 net_26:11 0.0050
*END

*D_NET net_76 0.2927
*CONN
*I inst_69:Z O
*I inst_118:D I
*CAP
1 inst_69:Z 0.0166
2 inst_118:D 0.0143
3 net_76:1 0.0152
4 net_76:2 0.1044
5 net_76:3 0.1044
6 net_76:4 0.0152
7 net_76:5 0.0226
*RES
2 inst_118:D net_76:5 0.0021
3 net_76:1 inst_69:Z 0.0050
4 net_76:2 net_76:1 0.0050
5 net_76:3 net_76:2 0.0081
6 net_76:4 net_76:3 0.0050
7 net_76:5 net_76:4 0.0050
*END

*D_NET blif_clk_net 1.9467
*CONN
*P blif_clk_net I
*I inst_129:A I
*I inst_132:A I
*CAP
1 blif_clk_net 0.1458
2 blif_clk_net:1 0.0683
3 blif_clk_net:2 0.2135
4 blif_clk_net:3 0.4484
5 blif_clk_net:4 0.1379
6 blif_clk_net:5 0.1139
7 inst_132:A 0.0489
8 blif_clk_net:6 0.2818
9 blif_clk_net:7 0.3290
10 inst_129:A 0.1592
*RES
2 blif_clk_net blif_clk_net:1 0.0861
3 blif_clk_net:1 blif_clk_net:2 0.1477
4 blif_clk_net:2 blif_clk_net:3 0.4806
5 blif_clk_net:3 blif_clk_net:4 0.3473
6 blif_clk_net:4 blif_clk_net:5 0.1114
7 blif_clk_net:5 inst_132:A 0.0198
8 blif_clk_net:3 blif_clk_net:6 0.4236
9 blif_clk_net:6 blif_clk_net:7 0.3328
10 blif_clk_net:7 inst_129:A 0.1906
*END

*D_NET net_101 0.1374
*CONN
*I inst_30:ZN O
*I inst_31:A1 I
*CAP
1 inst_30:ZN 0.0143
2 inst_31:A1 0.0166
3 net_101:1 0.0227
4 net_101:2 0.0152
5 net_101:3 0.0267
6 net_101:4 0.0267
7 net_101:5 0.0152
*RES
2 inst_30:ZN net_101:1 0.0021
3 inst_31:A1 net_101:5 0.0050
4 net_101:2 net_101:1 0.0050
5 net_101:3 net_101:2 0.0050
6 net_101:3 net_101:4 0.0020
7 net_101:5 net_101:4 0.0050
*END

*D_NET net_32 0.9738
*CONN
*I inst_83:ZN O
*I inst_96:A I
*I inst_40:A1 I
*I inst_57:A1 I
*CAP
1 inst_83:ZN 0.0332
2 inst_96:A 0.0143
3 inst_40:A1 0.0166
4 inst_57:A1 0.0166
5 net_32:1 0.0227
6 net_32:2 0.1889
7 net_32:3 0.1912
8 net_32:4 0.0840
9 net_32:5 0.0855
10 net_32:6 0.0529
11 net_32:7 0.0529
12 net_32:8 0.0562
13 net_32:9 0.0454
14 net_32:10 0.0152
15 net_32:11 0.0399
16 net_32:12 0.0399
17 net_32:13 0.0184
*RES
2 inst_83:ZN net_32:5 0.0050
3 net_32:1 inst_96:A 0.0021
4 net_32:2 net_32:1 0.0050
5 net_32:2 net_32:3 0.0140
6 net_32:4 net_32:3 0.0010
7 net_32:4 net_32:5 0.0090
8 net_32:6 inst_83:ZN 0.0050
9 net_32:6 net_32:7 0.0050
10 net_32:8 net_32:7 0.0050
11 net_32:8 net_32:13 0.0010
12 net_32:9 net_32:8 0.0068
13 net_32:9 net_32:10 0.0050
14 net_32:10 inst_57:A1 0.0050
15 net_32:11 inst_40:A1 0.0050
16 net_32:12 net_32:11 0.0025
17 net_32:13 net_32:12 0.0050
*END

*D_NET net_111 0.2700
*CONN
*I inst_55:ZN O
*I inst_30:A2 I
*CAP
1 inst_55:ZN 0.0076
2 inst_30:A2 0.0166
3 net_111:1 0.0159
4 net_111:2 0.1051
5 net_111:3 0.1074
6 net_111:4 0.0175
*RES
2 inst_30:A2 net_111:4 0.0050
3 net_111:1 inst_55:ZN 0.0010
4 net_111:2 net_111:1 0.0050
5 net_111:3 net_111:2 0.0105
6 net_111:3 net_111:4 0.0010
*END

*D_NET net_90 0.3532
*CONN
*I inst_33:ZN O
*I inst_62:A2 I
*I inst_34:A1 I
*CAP
1 inst_33:ZN 0.0072
2 inst_62:A2 0.0166
3 inst_34:A1 0.0166
4 net_90:1 0.0152
5 net_90:2 0.0253
6 net_90:3 0.0253
7 net_90:4 0.0312
8 net_90:5 0.0742
9 net_90:6 0.0155
10 net_90:7 0.0152
11 net_90:8 0.0264
12 net_90:9 0.0264
13 net_90:10 0.0582
*RES
2 inst_33:ZN net_90:6 0.0010
3 net_90:1 inst_62:A2 0.0050
4 net_90:2 net_90:1 0.0050
5 net_90:3 net_90:2 0.0014
6 net_90:4 net_90:3 0.0050
7 net_90:5 inst_34:A1 0.0050
8 net_90:5 net_90:4 0.0015
9 net_90:7 net_90:6 0.0050
10 net_90:8 net_90:7 0.0050
11 net_90:8 net_90:9 0.0034
12 net_90:10 net_90:5 0.0035
13 net_90:10 net_90:9 0.0050
*END

*D_NET net_40 0.2546
*CONN
*I inst_5:ZN O
*I inst_49:A1 I
*CAP
1 inst_5:ZN 0.0145
2 inst_49:A1 0.0166
3 net_40:1 0.0152
4 net_40:2 0.0852
5 net_40:3 0.0852
6 net_40:4 0.0152
7 net_40:5 0.0228
*RES
2 inst_5:ZN net_40:5 0.0021
3 net_40:1 inst_49:A1 0.0050
4 net_40:2 net_40:1 0.0050
5 net_40:3 net_40:2 0.0047
6 net_40:4 net_40:3 0.0050
7 net_40:5 net_40:4 0.0050
*END

*D_NET net_100 0.0287
*CONN
*I inst_127:ZN O
*I inst_26:A1 I
*CAP
1 inst_127:ZN 0.0143
2 inst_26:A1 0.0143
*RES
2 inst_26:A1 inst_127:ZN 0.0021
*END

*D_NET net_85 0.1186
*CONN
*I inst_108:ZN O
*I inst_61:A2 I
*CAP
1 inst_108:ZN 0.0166
2 inst_61:A2 0.0076
3 net_85:1 0.0159
4 net_85:2 0.0393
5 net_85:3 0.0393
*RES
2 inst_108:ZN net_85:3 0.0050
3 net_85:1 inst_61:A2 0.0010
4 net_85:2 net_85:1 0.0050
5 net_85:2 net_85:3 0.0025
*END

*D_NET net_69 0.3023
*CONN
*I inst_67:Z O
*I inst_114:D I
*CAP
1 inst_67:Z 0.0166
2 inst_114:D 0.0143
3 net_69:1 0.0152
4 net_69:2 0.1092
5 net_69:3 0.1092
6 net_69:4 0.0152
7 net_69:5 0.0226
*RES
2 net_69:1 inst_67:Z 0.0050
3 net_69:2 net_69:1 0.0050
4 net_69:2 net_69:3 0.0081
5 net_69:4 net_69:3 0.0050
6 net_69:5 inst_114:D 0.0021
7 net_69:5 net_69:4 0.0050
*END

*D_NET net_124 1.7273
*CONN
*I inst_135:Z O
*I inst_136:A I
*I inst_167:A I
*CAP
1 inst_135:Z 0.1311
2 net_124:1 0.0535
3 net_124:2 0.0383
4 inst_167:A 0.2939
5 net_124:3 0.1825
6 net_124:4 0.4154
7 net_124:5 0.4205
8 inst_136:A 0.1921
*RES
2 inst_135:Z net_124:1 0.2177
3 net_124:1 net_124:2 0.0520
4 net_124:2 inst_167:A 0.1787
5 net_124:2 net_124:3 0.3303
6 net_124:3 net_124:4 0.0500
7 net_124:4 net_124:5 0.3450
8 net_124:5 inst_136:A 0.2552
*END

*D_NET net_161 0.6797
*CONN
*I inst_172:Z O
*I inst_173:A I
*CAP
1 inst_172:Z 0.0169
2 net_161:1 0.3418
3 net_161:2 0.0277
4 net_161:3 0.2232
5 inst_173:A 0.0700
*RES
2 inst_172:Z net_161:1 0.3825
3 net_161:1 net_161:2 0.4916
4 net_161:2 net_161:3 0.0258
5 net_161:3 inst_173:A 0.0722
*END

*D_NET net_141 1.6831
*CONN
*I inst_152:Z O
*I inst_153:A I
*CAP
1 inst_152:Z 0.0341
2 net_141:1 0.3389
3 net_141:2 0.4000
4 net_141:3 0.0188
5 net_141:4 0.4709
6 inst_153:A 0.4204
*RES
2 inst_152:Z net_141:1 0.0122
3 net_141:1 net_141:2 0.2688
4 net_141:2 net_141:3 0.0936
5 net_141:3 net_141:4 0.3051
6 net_141:4 inst_153:A 0.1197
*END

*D_NET net_160 1.1420
*CONN
*I inst_171:Z O
*I inst_114:CK I
*CAP
1 inst_171:Z 0.0161
2 net_160:1 0.3729
3 net_160:2 0.0610
4 net_160:3 0.4010
5 inst_114:CK 0.2910
*RES
2 inst_171:Z net_160:1 0.3768
3 net_160:1 net_160:2 0.3083
4 net_160:2 net_160:3 0.1250
5 net_160:3 inst_114:CK 0.3526
*END

*D_NET net_83 0.1072
*CONN
*I inst_24:ZN O
*I inst_64:A1 I
*CAP
1 inst_24:ZN 0.0166
2 inst_64:A1 0.0166
3 net_83:1 0.0152
4 net_83:2 0.0218
5 net_83:3 0.0218
6 net_83:4 0.0152
*RES
2 inst_24:ZN net_83:4 0.0050
3 net_83:1 inst_64:A1 0.0050
4 net_83:2 net_83:1 0.0050
5 net_83:3 net_83:2 0.0014
6 net_83:4 net_83:3 0.0050
*END

*D_NET net_115 0.2089
*CONN
*I inst_72:ZN O
*I inst_39:A1 I
*CAP
1 inst_72:ZN 0.0166
2 inst_39:A1 0.0166
3 net_115:1 0.0897
4 net_115:2 0.0859
*RES
2 inst_39:A1 net_115:2 0.0050
3 net_115:1 inst_72:ZN 0.0050
4 net_115:1 net_115:2 0.0075
*END

*D_NET B3 1.0904
*CONN
*P B3 I
*I inst_4:A1 I
*CAP
1 B3 0.0130
2 inst_4:A1 0.0166
3 B3:1 0.0206
4 B3:2 0.0172
5 B3:3 0.0474
6 B3:4 0.0450
7 B3:5 0.4299
8 B3:6 0.4303
9 B3:7 0.0351
10 B3:8 0.0351
*RES
2 B3 B3:1 0.0010
3 inst_4:A1 B3:8 0.0050
4 B3:2 B3:1 0.0050
5 B3:2 B3:3 0.0010
6 B3:3 B3:4 0.0041
7 B3:5 B3:4 0.0010
8 B3:5 B3:6 0.0482
9 B3:7 B3:6 0.0050
10 B3:7 B3:8 0.0025
*END

*D_NET net_4 0.1974
*CONN
*I inst_115:QN O
*I inst_81:A I
*CAP
1 inst_81:A 0.0218
2 inst_115:QN 0.0166
3 net_4:1 0.0301
4 net_4:2 0.0219
5 net_4:3 0.0242
6 net_4:4 0.0426
7 net_4:5 0.0403
*RES
2 inst_81:A net_4:1 0.0031
3 inst_115:QN net_4:5 0.0050
4 net_4:2 net_4:1 0.0050
5 net_4:2 net_4:3 0.0015
6 net_4:3 net_4:4 0.0010
7 net_4:4 net_4:5 0.0030
*END

*D_NET net_95 0.2823
*CONN
*I inst_22:ZN O
*I inst_124:D I
*CAP
1 inst_22:ZN 0.0166
2 inst_124:D 0.0166
3 net_95:1 0.0152
4 net_95:2 0.1074
5 net_95:3 0.1112
6 net_95:4 0.0152
*RES
2 inst_124:D net_95:4 0.0050
3 net_95:1 inst_22:ZN 0.0050
4 net_95:2 net_95:1 0.0050
5 net_95:2 net_95:3 0.0088
6 net_95:4 net_95:3 0.0050
*END

*D_NET net_17 0.0467
*CONN
*I inst_103:ZN O
*I inst_38:A1 I
*CAP
1 inst_103:ZN 0.0153
2 inst_38:A1 0.0080
3 net_17:1 0.0234
*RES
2 inst_38:A1 net_17:1 0.0010
3 net_17:1 inst_103:ZN 0.0021
*END

*D_NET net_78 0.1732
*CONN
*I inst_110:ZN O
*I inst_15:A3 I
*CAP
1 inst_110:ZN 0.0143
2 inst_15:A3 0.0166
3 net_78:1 0.0227
4 net_78:2 0.0152
5 net_78:3 0.0446
6 net_78:4 0.0446
7 net_78:5 0.0152
*RES
2 inst_110:ZN net_78:1 0.0021
3 inst_15:A3 net_78:5 0.0050
4 net_78:2 net_78:1 0.0050
5 net_78:3 net_78:2 0.0050
6 net_78:3 net_78:4 0.0054
7 net_78:5 net_78:4 0.0050
*END

*D_NET A1 0.5184
*CONN
*P A1 I
*I inst_67:A I
*CAP
1 A1 0.0130
2 inst_67:A 0.0166
3 A1:1 0.0206
4 A1:2 0.0203
5 A1:3 0.2189
6 A1:4 0.2137
7 A1:5 0.0152
*RES
2 A1 A1:1 0.0010
3 inst_67:A A1:5 0.0050
4 A1:2 A1:1 0.0050
5 A1:2 A1:3 0.0010
6 A1:3 A1:4 0.0197
7 A1:5 A1:4 0.0050
*END

*D_NET net_27 1.6383
*CONN
*I inst_13:ZN O
*I inst_27:A2 I
*I inst_65:S I
*I inst_66:S I
*I inst_67:S I
*I inst_68:S I
*CAP
1 inst_13:ZN 0.0187
2 inst_27:A2 0.0166
3 inst_65:S 0.0166
4 inst_66:S 0.0166
5 inst_67:S 0.0166
6 inst_68:S 0.0166
7 net_27:1 0.0152
8 net_27:2 0.0284
9 net_27:3 0.0284
10 net_27:4 0.0205
11 net_27:5 0.0289
12 net_27:6 0.0639
13 net_27:7 0.0555
14 net_27:8 0.0190
15 net_27:9 0.1983
16 net_27:10 0.1870
17 net_27:11 0.0390
18 net_27:12 0.1033
19 net_27:13 0.0756
20 net_27:14 0.0926
21 net_27:15 0.0808
22 net_27:16 0.0188
23 net_27:17 0.0578
24 net_27:18 0.0578
25 net_27:19 0.0740
26 net_27:20 0.0740
27 net_27:21 0.0588
28 net_27:22 0.0588
29 net_27:23 0.0306
30 net_27:24 0.0271
31 net_27:25 0.0214
32 net_27:26 0.0214
*RES
2 net_27:1 inst_27:A2 0.0050
3 net_27:2 net_27:1 0.0050
4 net_27:3 net_27:2 0.0040
5 net_27:4 net_27:3 0.0050
6 net_27:4 net_27:5 0.0010
7 net_27:6 net_27:5 0.0010
8 net_27:6 net_27:7 0.0021
9 net_27:8 net_27:7 0.0050
10 net_27:9 net_27:8 0.0011
11 net_27:10 net_27:9 0.0238
12 net_27:10 net_27:11 0.0050
13 net_27:12 net_27:11 0.0045
14 net_27:12 net_27:18 0.0050
15 net_27:13 inst_68:S 0.0050
16 net_27:13 net_27:12 0.0090
17 net_27:14 inst_65:S 0.0050
18 net_27:14 net_27:23 0.0015
19 net_27:15 inst_67:S 0.0050
20 net_27:15 net_27:14 0.0065
21 net_27:16 net_27:15 0.0010
22 net_27:17 net_27:16 0.0050
23 net_27:17 net_27:18 0.0054
24 net_27:19 inst_66:S 0.0050
25 net_27:20 net_27:19 0.0085
26 net_27:21 net_27:20 0.0050
27 net_27:22 net_27:21 0.0047
28 net_27:23 net_27:22 0.0050
29 net_27:24 inst_13:ZN 0.0021
30 net_27:25 net_27:24 0.0050
31 net_27:26 net_27:9 0.0050
32 net_27:26 net_27:25 0.0010
*END

*D_NET net_164 1.9116
*CONN
*I inst_175:Z O
*I inst_176:A I
*I inst_177:A I
*CAP
1 inst_175:Z 0.3056
2 net_164:1 0.0305
3 net_164:2 0.2383
4 net_164:3 0.4020
5 net_164:4 0.2529
6 inst_177:A 0.2665
7 net_164:5 0.2236
8 inst_176:A 0.1922
*RES
2 inst_175:Z net_164:1 0.4354
3 net_164:1 net_164:2 0.1977
4 net_164:2 net_164:3 0.0788
5 net_164:3 net_164:4 0.3276
6 net_164:4 inst_177:A 0.3833
7 net_164:3 net_164:5 0.2805
8 net_164:5 inst_176:A 0.1322
*END

*D_NET net_56 1.5572
*CONN
*I inst_74:ZN O
*I inst_101:A I
*I inst_44:A2 I
*I inst_14:A2 I
*I inst_51:A1 I
*I inst_2:A2 I
*CAP
1 inst_74:ZN 0.0166
2 inst_101:A 0.0166
3 inst_44:A2 0.0166
4 inst_14:A2 0.0166
5 inst_51:A1 0.0166
6 inst_2:A2 0.0166
7 net_56:1 0.0261
8 net_56:2 0.0183
9 net_56:3 0.1950
10 net_56:4 0.0664
11 net_56:5 0.0950
12 net_56:6 0.0279
13 net_56:7 0.0899
14 net_56:8 0.0298
15 net_56:9 0.1362
16 net_56:10 0.0178
17 net_56:11 0.0178
18 net_56:12 0.0337
19 net_56:13 0.0337
20 net_56:14 0.0192
21 net_56:15 0.0578
22 net_56:16 0.0578
23 net_56:17 0.1460
24 net_56:18 0.1460
25 net_56:19 0.0714
26 net_56:20 0.0183
27 net_56:21 0.0183
28 net_56:22 0.0302
29 net_56:23 0.0302
30 net_56:24 0.0746
*RES
2 net_56:1 inst_101:A 0.0050
3 net_56:1 net_56:2 0.0010
4 net_56:3 net_56:2 0.0050
5 net_56:3 net_56:9 0.0061
6 net_56:4 net_56:3 0.0027
7 net_56:5 net_56:4 0.0050
8 net_56:5 net_56:24 0.0060
9 net_56:6 inst_2:A2 0.0050
10 net_56:6 net_56:5 0.0015
11 net_56:7 inst_44:A2 0.0050
12 net_56:7 net_56:19 0.0040
13 net_56:8 net_56:7 0.0020
14 net_56:9 net_56:8 0.0050
15 net_56:10 inst_14:A2 0.0050
16 net_56:10 net_56:11 0.0010
17 net_56:12 net_56:11 0.0050
18 net_56:13 net_56:12 0.0020
19 net_56:14 net_56:1 0.0010
20 net_56:14 net_56:13 0.0050
21 net_56:15 inst_51:A1 0.0050
22 net_56:16 net_56:15 0.0060
23 net_56:17 net_56:16 0.0050
24 net_56:18 net_56:17 0.0129
25 net_56:19 net_56:18 0.0050
26 net_56:20 inst_74:ZN 0.0050
27 net_56:21 net_56:20 0.0010
28 net_56:22 net_56:21 0.0050
29 net_56:22 net_56:23 0.0020
30 net_56:24 net_56:23 0.0050
*END

*D_NET net_87 0.1230
*CONN
*I inst_64:ZN O
*I inst_19:A3 I
*CAP
1 inst_64:ZN 0.0252
2 inst_19:A3 0.0166
3 net_87:1 0.0239
4 net_87:2 0.0239
5 net_87:3 0.0335
*RES
2 inst_64:ZN net_87:3 0.0031
3 net_87:1 inst_19:A3 0.0050
4 net_87:1 net_87:2 0.0010
5 net_87:3 net_87:2 0.0050
*END

*D_NET net_0 0.3189
*CONN
*I inst_122:QN O
*I inst_77:A I
*I inst_127:A2 I
*CAP
1 inst_77:A 0.0287
2 inst_127:A2 0.0166
3 inst_122:QN 0.0332
4 net_0:1 0.0152
5 net_0:2 0.0210
6 net_0:3 0.0210
7 net_0:4 0.0169
8 net_0:5 0.0169
9 net_0:6 0.0543
10 net_0:7 0.0581
11 net_0:8 0.0370
*RES
2 inst_122:QN net_0:5 0.0050
3 net_0:1 inst_127:A2 0.0050
4 net_0:2 net_0:1 0.0050
5 net_0:2 net_0:3 0.0020
6 net_0:4 net_0:3 0.0050
7 net_0:5 net_0:4 0.0010
8 net_0:6 inst_122:QN 0.0050
9 net_0:7 net_0:6 0.0045
10 net_0:8 inst_77:A 0.0041
11 net_0:8 net_0:7 0.0050
*END

*D_NET net_155 1.7532
*CONN
*I inst_166:Z O
*I inst_115:CK I
*CAP
1 inst_166:Z 0.1267
2 net_155:1 0.2434
3 net_155:2 0.3726
4 net_155:3 0.2980
5 net_155:4 0.2454
6 inst_115:CK 0.4670
*RES
2 inst_166:Z net_155:1 0.1921
3 net_155:1 net_155:2 0.1376
4 net_155:2 net_155:3 0.4443
5 net_155:3 net_155:4 0.1288
6 net_155:4 inst_115:CK 0.3022
*END

*D_NET net_35 0.5621
*CONN
*I inst_79:ZN O
*I inst_98:A I
*I inst_41:A1 I
*I inst_70:B I
*CAP
1 inst_79:ZN 0.0332
2 inst_98:A 0.0166
3 inst_41:A1 0.0166
4 inst_70:B 0.0166
5 net_35:1 0.0161
6 net_35:2 0.0161
7 net_35:3 0.0296
8 net_35:4 0.0296
9 net_35:5 0.0545
10 net_35:6 0.0314
11 net_35:7 0.0352
12 net_35:8 0.0260
13 net_35:9 0.0260
14 net_35:10 0.0162
15 net_35:11 0.0162
16 net_35:12 0.0182
17 net_35:13 0.0182
18 net_35:14 0.0475
19 net_35:15 0.0475
20 net_35:16 0.0507
*RES
2 inst_79:ZN net_35:11 0.0050
3 net_35:1 inst_98:A 0.0050
4 net_35:2 net_35:1 0.0010
5 net_35:3 net_35:2 0.0050
6 net_35:4 net_35:3 0.0020
7 net_35:5 inst_70:B 0.0050
8 net_35:5 net_35:4 0.0050
9 net_35:6 inst_41:A1 0.0050
10 net_35:6 net_35:7 0.0020
11 net_35:8 net_35:7 0.0050
12 net_35:8 net_35:9 0.0020
13 net_35:10 net_35:9 0.0050
14 net_35:10 net_35:11 0.0010
15 net_35:12 inst_79:ZN 0.0050
16 net_35:12 net_35:13 0.0010
17 net_35:14 net_35:13 0.0050
18 net_35:14 net_35:15 0.0027
19 net_35:16 net_35:5 0.0035
20 net_35:16 net_35:15 0.0050
*END

*D_NET net_16 0.1494
*CONN
*I inst_102:ZN O
*I inst_1:A I
*CAP
1 inst_102:ZN 0.0166
2 inst_1:A 0.0166
3 net_16:1 0.0152
4 net_16:2 0.0429
5 net_16:3 0.0429
6 net_16:4 0.0152
*RES
2 inst_102:ZN net_16:4 0.0050
3 net_16:1 inst_1:A 0.0050
4 net_16:2 net_16:1 0.0050
5 net_16:3 net_16:2 0.0054
6 net_16:4 net_16:3 0.0050
*END

*D_NET net_22 0.5183
*CONN
*I inst_88:ZN O
*I inst_103:A I
*I inst_3:A1 I
*I inst_13:A2 I
*CAP
1 inst_88:ZN 0.0432
2 inst_103:A 0.0166
3 inst_3:A1 0.0573
4 inst_13:A2 0.0136
5 net_22:1 0.0436
6 net_22:2 0.1363
7 net_22:3 0.1041
8 net_22:4 0.0656
9 net_22:5 0.0379
*RES
2 inst_88:ZN net_22:5 0.0072
3 inst_13:A2 inst_88:ZN 0.0020
4 net_22:1 inst_103:A 0.0050
5 net_22:1 net_22:2 0.0055
6 net_22:2 net_22:3 0.0110
7 net_22:3 net_22:4 0.0050