*SPEF "IEEE 1481-1998"
*DESIGN "changes"
*DATE "Tue Dec 02 20:34:05 2014"
*VENDOR "TAU 2015 Contest"
*PROGRAM "Benchmark Parasitic Generator"
*VERSION "0.0"
*DESIGN_FLOW "NETLIST_TYPE_VERILOG"
*DIVIDER /
*DELIMITER :
*BUS_DELIMITER [ ]
*T_UNIT 1 PS
*C_UNIT 1 FF
*R_UNIT 1 KOHM
*L_UNIT 1 UH

*D_NET TAUNET_4 1.7439
*CONN
*I TAUGATE_6:Z O
*I TAUGATE_4:A I
*CAP
1 TAUGATE_6:Z 0.2611
2 TAUNET_4:1 0.4098
3 TAUNET_4:2 0.5009
4 TAUNET_4:3 0.2843
5 TAUGATE_4:A 0.2878
*RES
2 TAUGATE_6:Z TAUNET_4:1 0.1659
3 TAUNET_4:1 TAUNET_4:2 0.2742
4 TAUNET_4:2 TAUNET_4:3 0.3494
5 TAUNET_4:3 TAUGATE_4:A 0.1485
*END

*D_NET TAUNET_9 1.3760
*CONN
*I inst_2:ZN O
*I TAUGATE_9:A I
*CAP
1 inst_2:ZN 0.2110
2 TAUNET_9:1 0.3070
3 TAUNET_9:2 0.3583
4 TAUNET_9:3 0.1395
5 TAUNET_9:4 0.0646
6 TAUNET_9:5 0.0794
7 TAUGATE_9:A 0.2161
*RES
2 inst_2:ZN TAUNET_9:1 0.1614
3 TAUNET_9:1 TAUNET_9:2 0.3312
4 TAUNET_9:2 TAUNET_9:3 0.3755
5 TAUNET_9:3 TAUNET_9:4 0.4644
6 TAUNET_9:4 TAUNET_9:5 0.4559
7 TAUNET_9:5 TAUGATE_9:A 0.4050
*END

*D_NET TAUNET_5 0.4849
*CONN
*I TAUGATE_1:Z O
*I TAUGATE_5:A I
*CAP
1 TAUGATE_1:Z 0.1670
2 TAUNET_5:1 0.2440
3 TAUNET_5:2 0.0332
4 TAUGATE_5:A 0.0406
*RES
2 TAUGATE_1:Z TAUNET_5:1 0.2732
3 TAUNET_5:1 TAUNET_5:2 0.0073
4 TAUNET_5:2 TAUGATE_5:A 0.1308
*END

*D_NET net_2 1.8161
*CONN
*I TAUGATE_9:Z O
*I inst_4:A2 I
*CAP
1 TAUGATE_9:Z 0.2909
2 net_2:1 0.0740
3 net_2:2 0.4871
4 net_2:3 0.4951
5 net_2:4 0.4125
6 inst_4:A2 0.0565
*RES
2 TAUGATE_9:Z net_2:1 0.1285
3 net_2:1 net_2:2 0.0292
4 net_2:2 net_2:3 0.2926
5 net_2:3 net_2:4 0.4507
6 net_2:4 inst_4:A2 0.3356
*END

*D_NET TAUNET_8 1.9602
*CONN
*I TAUGATE_2:Z O
*I TAUGATE_8:A I
*CAP
1 TAUGATE_2:Z 0.3845
2 TAUNET_8:1 0.3056
3 TAUNET_8:2 0.3464
4 TAUNET_8:3 0.0305
5 TAUNET_8:4 0.2383
6 TAUNET_8:5 0.4020
7 TAUGATE_8:A 0.2529
*RES
2 TAUGATE_2:Z TAUNET_8:1 0.2665
3 TAUNET_8:1 TAUNET_8:2 0.4354
4 TAUNET_8:2 TAUNET_8:3 0.1977
5 TAUNET_8:3 TAUNET_8:4 0.0788
6 TAUNET_8:4 TAUNET_8:5 0.3276
7 TAUNET_8:5 TAUGATE_8:A 0.3833
*END

*D_NET nx6 0.8670
*CONN
*I TAUGATE_8:Z O
*I inst_0:A2 I
*CAP
1 TAUGATE_8:Z 0.0716
2 nx6:1 0.1922
3 nx6:2 0.2805
4 nx6:3 0.1322
5 inst_0:A2 0.1905
*RES
2 TAUGATE_8:Z nx6:1 0.4017
3 nx6:1 nx6:2 0.4680
4 nx6:2 nx6:3 0.2976
5 nx6:3 inst_0:A2 0.2331
*END

*D_NET TAUNET_1 1.3358
*CONN
*I TAUGATE_7:Z O
*I TAUGATE_1:A I
*CAP
1 TAUGATE_7:Z 0.3943
2 TAUNET_1:1 0.1955
3 TAUNET_1:2 0.1868
4 TAUNET_1:3 0.4889
5 TAUGATE_1:A 0.0703
*RES
2 TAUGATE_7:Z TAUNET_1:1 0.3298
3 TAUNET_1:1 TAUNET_1:2 0.4131
4 TAUNET_1:2 TAUNET_1:3 0.3310
5 TAUNET_1:3 TAUGATE_1:A 0.2621
*END

*D_NET net_0 0.9833
*CONN
*I TAUGATE_5:Z O
*I inst_5:A1 I
*CAP
1 TAUGATE_5:Z 0.1808
2 net_0:1 0.3990
3 inst_5:A1 0.4035
*RES
2 TAUGATE_5:Z net_0:1 0.0219
3 net_0:1 inst_5:A1 0.0830
*END

*D_NET TAUNET_6 1.6212
*CONN
*I inst_3:ZN O
*I TAUGATE_6:A I
*CAP
1 inst_3:ZN 0.1250
2 TAUNET_6:1 0.4976
3 TAUNET_6:2 0.3591
4 TAUNET_6:3 0.2780
5 TAUNET_6:4 0.2022
6 TAUGATE_6:A 0.1593
*RES
2 inst_3:ZN TAUNET_6:1 0.4382
3 TAUNET_6:1 TAUNET_6:2 0.3498
4 TAUNET_6:2 TAUNET_6:3 0.4055
5 TAUNET_6:3 TAUNET_6:4 0.4519
6 TAUNET_6:4 TAUGATE_6:A 0.4658
*END

*D_NET TAUNET_7 1.1222
*CONN
*I inst_1:ZN O
*I TAUGATE_7:A I
*CAP
1 inst_1:ZN 0.4019
2 TAUNET_7:1 0.2503
3 TAUGATE_7:A 0.4700
*RES
2 inst_1:ZN TAUNET_7:1 0.3789
3 TAUNET_7:1 TAUGATE_7:A 0.3545
*END

