*SPEF "IEEE 1481-1998"
*DESIGN "changes"
*DATE "Tue Dec 02 20:34:05 2014"
*VENDOR "TAU 2015 Contest"
*PROGRAM "Benchmark Parasitic Generator"
*VERSION "0.0"
*DESIGN_FLOW "NETLIST_TYPE_VERILOG"
*DIVIDER /
*DELIMITER :
*BUS_DELIMITER [ ]
*T_UNIT 1 PS
*C_UNIT 1 FF
*R_UNIT 1 KOHM
*L_UNIT 1 UH

*D_NET nx1 1.7439
*CONN
*I TAUGATE_27:Z O
*I inst_1:A1 I
*CAP
1 TAUGATE_27:Z 0.2611
2 nx1:1 0.4098
3 nx1:2 0.5009
4 nx1:3 0.2843
5 inst_1:A1 0.2878
*RES
2 TAUGATE_27:Z nx1:1 0.1659
3 nx1:1 nx1:2 0.2742
4 nx1:2 nx1:3 0.3494
5 nx1:3 inst_1:A1 0.1485
*END

*D_NET TAUNET_4 1.3760
*CONN
*I TAUGATE_21:Z O
*I TAUGATE_4:A I
*CAP
1 TAUGATE_21:Z 0.2110
2 TAUNET_4:1 0.3070
3 TAUNET_4:2 0.3583
4 TAUNET_4:3 0.1395
5 TAUNET_4:4 0.0646
6 TAUNET_4:5 0.0794
7 TAUGATE_4:A 0.2161
*RES
2 TAUGATE_21:Z TAUNET_4:1 0.1614
3 TAUNET_4:1 TAUNET_4:2 0.3312
4 TAUNET_4:2 TAUNET_4:3 0.3755
5 TAUNET_4:3 TAUNET_4:4 0.4644
6 TAUNET_4:4 TAUNET_4:5 0.4559
7 TAUNET_4:5 TAUGATE_4:A 0.4050
*END

*D_NET TAUNET_13 0.4849
*CONN
*P nx3 I
*I TAUGATE_13:A I
*CAP
1 nx3 0.1670
2 TAUNET_13:1 0.2440
3 TAUNET_13:2 0.0332
4 TAUGATE_13:A 0.0406
*RES
2 nx3 TAUNET_13:1 0.2732
3 TAUNET_13:1 TAUNET_13:2 0.0073
4 TAUNET_13:2 TAUGATE_13:A 0.1308
*END

*D_NET TAUNET_12 1.8161
*CONN
*I inst_3:ZN O
*I TAUGATE_12:A I
*CAP
1 inst_3:ZN 0.2909
2 TAUNET_12:1 0.0740
3 TAUNET_12:2 0.4871
4 TAUNET_12:3 0.4951
5 TAUNET_12:4 0.4125
6 TAUGATE_12:A 0.0565
*RES
2 inst_3:ZN TAUNET_12:1 0.1285
3 TAUNET_12:1 TAUNET_12:2 0.0292
4 TAUNET_12:2 TAUNET_12:3 0.2926
5 TAUNET_12:3 TAUNET_12:4 0.4507
6 TAUNET_12:4 TAUGATE_12:A 0.3356
*END

*D_NET nx7 1.9602
*CONN
*I TAUGATE_11:Z O
*I inst_2:A1 I
*CAP
1 TAUGATE_11:Z 0.3845
2 nx7:1 0.3056
3 nx7:2 0.3464
4 nx7:3 0.0305
5 nx7:4 0.2383
6 nx7:5 0.4020
7 inst_2:A1 0.2529
*RES
2 TAUGATE_11:Z nx7:1 0.2665
3 nx7:1 nx7:2 0.4354
4 nx7:2 nx7:3 0.1977
5 nx7:3 nx7:4 0.0788
6 nx7:4 nx7:5 0.3276
7 nx7:5 inst_2:A1 0.3833
*END

*D_NET TAUNET_19 0.8670
*CONN
*I inst_0:ZN O
*I TAUGATE_19:A I
*CAP
1 inst_0:ZN 0.0716
2 TAUNET_19:1 0.1922
3 TAUNET_19:2 0.2805
4 TAUNET_19:3 0.1322
5 TAUGATE_19:A 0.1905
*RES
2 inst_0:ZN TAUNET_19:1 0.4017
3 TAUNET_19:1 TAUNET_19:2 0.4680
4 TAUNET_19:2 TAUNET_19:3 0.2976
5 TAUNET_19:3 TAUGATE_19:A 0.2331
*END

*D_NET TAUNET_1 1.3358
*CONN
*I TAUGATE_14:Z O
*I TAUGATE_1:A I
*CAP
1 TAUGATE_14:Z 0.3943
2 TAUNET_1:1 0.1955
3 TAUNET_1:2 0.1868
4 TAUNET_1:3 0.4889
5 TAUGATE_1:A 0.0703
*RES
2 TAUGATE_14:Z TAUNET_1:1 0.3298
3 TAUNET_1:1 TAUNET_1:2 0.4131
4 TAUNET_1:2 TAUNET_1:3 0.3310
5 TAUNET_1:3 TAUGATE_1:A 0.2621
*END

*D_NET net_0 0.9833
*CONN
*I TAUGATE_17:Z O
*I inst_5:A1 I
*CAP
1 TAUGATE_17:Z 0.1808
2 net_0:1 0.3990
3 inst_5:A1 0.4035
*RES
2 TAUGATE_17:Z net_0:1 0.0219
3 net_0:1 inst_5:A1 0.0830
*END

*D_NET net_3 3.2416
*CONN
*I TAUGATE_26:Z O
*I inst_5:A2 I
*I inst_4:A1 I
*CAP
1 TAUGATE_26:Z 0.1250
2 net_3:1 0.4976
3 net_3:2 0.3591
4 net_3:3 0.2780
5 net_3:4 0.2022
6 inst_4:A1 0.1593
7 net_3:5 0.0632
8 net_3:6 0.2503
9 net_3:7 0.4700
10 net_3:8 0.3789
11 net_3:9 0.3545
12 inst_5:A2 0.1033
*RES
2 TAUGATE_26:Z net_3:1 0.4382
3 net_3:1 net_3:2 0.3498
4 net_3:2 net_3:3 0.4055
5 net_3:3 net_3:4 0.4519
6 net_3:4 inst_4:A1 0.4658
7 net_3:4 net_3:5 0.4316
8 net_3:5 net_3:6 0.1782
9 net_3:6 net_3:7 0.4734
10 net_3:7 net_3:8 0.0376
11 net_3:8 net_3:9 0.0972
12 net_3:9 inst_5:A2 0.3594
*END

*D_NET nx2 1.4515
*CONN
*I TAUGATE_20:Z O
*I inst_3:A1 I
*CAP
1 TAUGATE_20:Z 0.3248
2 nx2:1 0.1267
3 nx2:2 0.3840
4 nx2:3 0.2434
5 inst_3:A1 0.3726
*RES
2 TAUGATE_20:Z nx2:1 0.2980
3 nx2:1 nx2:2 0.2454
4 nx2:2 nx2:3 0.4670
5 nx2:3 inst_3:A1 0.1921
*END

*D_NET net_1 1.8148
*CONN
*I TAUGATE_19:Z O
*I inst_2:A2 I
*I inst_3:A2 I
*CAP
1 TAUGATE_19:Z 0.4443
2 net_1:1 0.3022
3 net_1:2 0.1405
4 inst_2:A2 0.0668
5 net_1:3 0.0282
6 net_1:4 0.3089
7 net_1:5 0.0253
8 net_1:6 0.3105
9 inst_3:A2 0.1881
*RES
2 TAUGATE_19:Z net_1:1 0.3699
3 net_1:1 net_1:2 0.4131
4 net_1:2 inst_2:A2 0.4004
5 net_1:1 net_1:3 0.2034
6 net_1:3 net_1:4 0.1592
7 net_1:4 net_1:5 0.3147
8 net_1:5 net_1:6 0.2761
9 net_1:6 inst_3:A2 0.3643
*END

*D_NET TAUNET_11 1.2795
*CONN
*P nx7 I
*I TAUGATE_11:A I
*CAP
1 nx7 0.0666
2 TAUNET_11:1 0.3580
3 TAUNET_11:2 0.3774
4 TAUNET_11:3 0.2731
5 TAUNET_11:4 0.1525
6 TAUGATE_11:A 0.0518
*RES
2 nx7 TAUNET_11:1 0.2548
3 TAUNET_11:1 TAUNET_11:2 0.2154
4 TAUNET_11:2 TAUNET_11:3 0.4921
5 TAUNET_11:3 TAUNET_11:4 0.1648
6 TAUNET_11:4 TAUGATE_11:A 0.1855
*END

*D_NET TAUNET_22 1.0916
*CONN
*I TAUGATE_9:Z O
*I TAUGATE_22:A I
*CAP
1 TAUGATE_9:Z 0.3530
2 TAUNET_22:1 0.2239
3 TAUNET_22:2 0.0917
4 TAUGATE_22:A 0.4230
*RES
2 TAUGATE_9:Z TAUNET_22:1 0.1494
3 TAUNET_22:1 TAUNET_22:2 0.3290
4 TAUNET_22:2 TAUGATE_22:A 0.1620
*END

*D_NET TAUNET_5 1.1549
*CONN
*I TAUGATE_28:Z O
*I TAUGATE_5:A I
*CAP
1 TAUGATE_28:Z 0.2883
2 TAUNET_5:1 0.4381
3 TAUNET_5:2 0.3484
4 TAUGATE_5:A 0.0801
*RES
2 TAUGATE_28:Z TAUNET_5:1 0.1392
3 TAUNET_5:1 TAUNET_5:2 0.1891
4 TAUNET_5:2 TAUGATE_5:A 0.0464
*END

*D_NET net_2 1.0649
*CONN
*I TAUGATE_22:Z O
*I inst_4:A2 I
*CAP
1 TAUGATE_22:Z 0.0279
2 net_2:1 0.0649
3 net_2:2 0.0510
4 net_2:3 0.1600
5 net_2:4 0.1748
6 net_2:5 0.4787
7 inst_4:A2 0.1076
*RES
2 TAUGATE_22:Z net_2:1 0.4606
3 net_2:1 net_2:2 0.3388
4 net_2:2 net_2:3 0.4657
5 net_2:3 net_2:4 0.3595
6 net_2:4 net_2:5 0.2471
7 net_2:5 inst_4:A2 0.0832
*END

*D_NET nx6 0.8209
*CONN
*I TAUGATE_16:Z O
*I inst_0:A2 I
*CAP
1 TAUGATE_16:Z 0.3736
2 nx6:1 0.3644
3 inst_0:A2 0.0829
*RES
2 TAUGATE_16:Z nx6:1 0.1977
3 nx6:1 inst_0:A2 0.4694
*END

*D_NET TAUNET_24 2.0853
*CONN
*I inst_5:ZN O
*I TAUGATE_24:A I
*CAP
1 inst_5:ZN 0.3882
2 TAUNET_24:1 0.0413
3 TAUNET_24:2 0.4651
4 TAUNET_24:3 0.4065
5 TAUNET_24:4 0.3164
6 TAUNET_24:5 0.3513
7 TAUGATE_24:A 0.1165
*RES
2 inst_5:ZN TAUNET_24:1 0.0986
3 TAUNET_24:1 TAUNET_24:2 0.2243
4 TAUNET_24:2 TAUNET_24:3 0.1286
5 TAUNET_24:3 TAUNET_24:4 0.4269
6 TAUNET_24:4 TAUNET_24:5 0.2482
7 TAUNET_24:5 TAUGATE_24:A 0.2195
*END

*D_NET TAUNET_16 1.7569
*CONN
*I TAUGATE_8:Z O
*I TAUGATE_16:A I
*CAP
1 TAUGATE_8:Z 0.4091
2 TAUNET_16:1 0.3587
3 TAUNET_16:2 0.1869
4 TAUNET_16:3 0.4974
5 TAUGATE_16:A 0.3047
*RES
2 TAUGATE_8:Z TAUNET_16:1 0.1200
3 TAUNET_16:1 TAUNET_16:2 0.4969
4 TAUNET_16:2 TAUNET_16:3 0.1210
5 TAUNET_16:3 TAUGATE_16:A 0.1733
*END

*D_NET TAUNET_25 1.1896
*CONN
*I inst_2:ZN O
*I TAUGATE_25:A I
*CAP
1 inst_2:ZN 0.0283
2 TAUNET_25:1 0.2945
3 TAUNET_25:2 0.3177
4 TAUNET_25:3 0.2101
5 TAUGATE_25:A 0.3390
*RES
2 inst_2:ZN TAUNET_25:1 0.2046
3 TAUNET_25:1 TAUNET_25:2 0.3404
4 TAUNET_25:2 TAUNET_25:3 0.1317
5 TAUNET_25:3 TAUGATE_25:A 0.3617
*END

*D_NET TAUNET_27 1.2055
*CONN
*P nx1 I
*I TAUGATE_27:A I
*CAP
1 nx1 0.3629
2 TAUNET_27:1 0.3900
3 TAUNET_27:2 0.0557
4 TAUNET_27:3 0.1253
5 TAUGATE_27:A 0.2716
*RES
2 nx1 TAUNET_27:1 0.3735
3 TAUNET_27:1 TAUNET_27:2 0.1079
4 TAUNET_27:2 TAUNET_27:3 0.3323
5 TAUNET_27:3 TAUGATE_27:A 0.2907
*END

*D_NET TAUNET_7 1.4383
*CONN
*I TAUGATE_15:Z O
*I TAUGATE_7:A I
*CAP
1 TAUGATE_15:Z 0.4966
2 TAUNET_7:1 0.2702
3 TAUNET_7:2 0.2135
4 TAUNET_7:3 0.0419
5 TAUNET_7:4 0.2773
6 TAUNET_7:5 0.0903
7 TAUGATE_7:A 0.0485
*RES
2 TAUGATE_15:Z TAUNET_7:1 0.4602
3 TAUNET_7:1 TAUNET_7:2 0.4262
4 TAUNET_7:2 TAUNET_7:3 0.2009
5 TAUNET_7:3 TAUNET_7:4 0.3114
6 TAUNET_7:4 TAUNET_7:5 0.3090
7 TAUNET_7:5 TAUGATE_7:A 0.3972
*END

*D_NET TAUNET_28 1.1430
*CONN
*I TAUGATE_1:Z O
*I TAUGATE_28:A I
*CAP
1 TAUGATE_1:Z 0.2443
2 TAUNET_28:1 0.3734
3 TAUNET_28:2 0.1567
4 TAUNET_28:3 0.1247
5 TAUGATE_28:A 0.2439
*RES
2 TAUGATE_1:Z TAUNET_28:1 0.2588
3 TAUNET_28:1 TAUNET_28:2 0.4474
4 TAUNET_28:2 TAUNET_28:3 0.3528
5 TAUNET_28:3 TAUGATE_28:A 0.0472
*END

*D_NET TAUNET_18 1.3929
*CONN
*I TAUGATE_2:Z O
*I TAUGATE_18:A I
*CAP
1 TAUGATE_2:Z 0.1981
2 TAUNET_18:1 0.0169
3 TAUNET_18:2 0.4026
4 TAUNET_18:3 0.4684
5 TAUNET_18:4 0.2490
6 TAUGATE_18:A 0.0579
*RES
2 TAUGATE_2:Z TAUNET_18:1 0.0423
3 TAUNET_18:1 TAUNET_18:2 0.2861
4 TAUNET_18:2 TAUNET_18:3 0.4278
5 TAUNET_18:3 TAUNET_18:4 0.3875
6 TAUNET_18:4 TAUGATE_18:A 0.4796
*END

*D_NET TAUNET_9 1.0064
*CONN
*I TAUGATE_25:Z O
*I TAUGATE_9:A I
*CAP
1 TAUGATE_25:Z 0.1554
2 TAUNET_9:1 0.4380
3 TAUGATE_9:A 0.4130
*RES
2 TAUGATE_25:Z TAUNET_9:1 0.4990
3 TAUNET_9:1 TAUGATE_9:A 0.2134
*END

*D_NET TAUNET_21 2.0765
*CONN
*I TAUGATE_6:Z O
*I TAUGATE_21:A I
*CAP
1 TAUGATE_6:Z 0.4947
2 TAUNET_21:1 0.2854
3 TAUNET_21:2 0.4464
4 TAUNET_21:3 0.2438
5 TAUNET_21:4 0.2969
6 TAUGATE_21:A 0.3091
*RES
2 TAUGATE_6:Z TAUNET_21:1 0.5006
3 TAUNET_21:1 TAUNET_21:2 0.2264
4 TAUNET_21:2 TAUNET_21:3 0.3973
5 TAUNET_21:3 TAUNET_21:4 0.2044
6 TAUNET_21:4 TAUGATE_21:A 0.1531
*END

*D_NET TAUNET_3 1.2691
*CONN
*I TAUGATE_24:Z O
*I TAUGATE_3:A I
*CAP
1 TAUGATE_24:Z 0.2618
2 TAUNET_3:1 0.4002
3 TAUNET_3:2 0.3652
4 TAUNET_3:3 0.1857
5 TAUGATE_3:A 0.0562
*RES
2 TAUGATE_24:Z TAUNET_3:1 0.0882
3 TAUNET_3:1 TAUNET_3:2 0.4386
4 TAUNET_3:2 TAUNET_3:3 0.2715
5 TAUNET_3:3 TAUGATE_3:A 0.0199
*END

*D_NET TAUNET_15 0.5520
*CONN
*I inst_1:ZN O
*I TAUGATE_15:A I
*CAP
1 inst_1:ZN 0.1459
2 TAUNET_15:1 0.1026
3 TAUNET_15:2 0.1939
4 TAUGATE_15:A 0.1095
*RES
2 inst_1:ZN TAUNET_15:1 0.0212
3 TAUNET_15:1 TAUNET_15:2 0.1417
4 TAUNET_15:2 TAUGATE_15:A 0.2190
*END

*D_NET TAUNET_20 1.5644
*CONN
*P nx2 I
*I TAUGATE_20:A I
*CAP
1 nx2 0.1138
2 TAUNET_20:1 0.3663
3 TAUNET_20:2 0.2540
4 TAUNET_20:3 0.0526
5 TAUNET_20:4 0.2388
6 TAUNET_20:5 0.1787
7 TAUGATE_20:A 0.3603
*RES
2 nx2 TAUNET_20:1 0.0603
3 TAUNET_20:1 TAUNET_20:2 0.0863
4 TAUNET_20:2 TAUNET_20:3 0.3102
5 TAUNET_20:3 TAUNET_20:4 0.1239
6 TAUNET_20:4 TAUNET_20:5 0.2473
7 TAUNET_20:5 TAUGATE_20:A 0.0055
*END

*D_NET TAUNET_10 1.2459
*CONN
*P nx6 I
*I TAUGATE_10:A I
*CAP
1 nx6 0.2412
2 TAUNET_10:1 0.4441
3 TAUNET_10:2 0.4218
4 TAUNET_10:3 0.0848
5 TAUNET_10:4 0.0266
6 TAUGATE_10:A 0.0274
*RES
2 nx6 TAUNET_10:1 0.4218
3 TAUNET_10:1 TAUNET_10:2 0.2061
4 TAUNET_10:2 TAUNET_10:3 0.2110
5 TAUNET_10:3 TAUNET_10:4 0.4583
6 TAUNET_10:4 TAUGATE_10:A 0.3985
*END

*D_NET TAUNET_17 1.9898
*CONN
*I TAUGATE_5:Z O
*I TAUGATE_17:A I
*CAP
1 TAUGATE_5:Z 0.0725
2 TAUNET_17:1 0.3124
3 TAUNET_17:2 0.3685
4 TAUNET_17:3 0.4317
5 TAUNET_17:4 0.1801
6 TAUNET_17:5 0.2826
7 TAUGATE_17:A 0.3420
*RES
2 TAUGATE_5:Z TAUNET_17:1 0.0965
3 TAUNET_17:1 TAUNET_17:2 0.2555
4 TAUNET_17:2 TAUNET_17:3 0.1304
5 TAUNET_17:3 TAUNET_17:4 0.3675
6 TAUNET_17:4 TAUNET_17:5 0.4634
7 TAUNET_17:5 TAUGATE_17:A 0.2869
*END

*D_NET TAUNET_14 0.5511
*CONN
*I TAUGATE_7:Z O
*I TAUGATE_14:A I
*CAP
1 TAUGATE_7:Z 0.1182
2 TAUNET_14:1 0.0608
3 TAUGATE_14:A 0.3721
*RES
2 TAUGATE_7:Z TAUNET_14:1 0.4648
3 TAUNET_14:1 TAUGATE_14:A 0.2376
*END

*D_NET nx3 1.2804
*CONN
*I TAUGATE_13:Z O
*I inst_1:A2 I
*I inst_0:A1 I
*CAP
1 TAUGATE_13:Z 0.3081
2 nx3:1 0.0264
3 nx3:2 0.2502
4 inst_1:A2 0.2506
5 nx3:3 0.2747
6 inst_0:A1 0.1704
*RES
2 TAUGATE_13:Z nx3:1 0.4486
3 nx3:1 nx3:2 0.0641
4 nx3:2 inst_1:A2 0.0138
5 nx3:1 nx3:3 0.2303
6 nx3:3 inst_0:A1 0.0121
*END

*D_NET TAUNET_8 0.6221
*CONN
*I TAUGATE_18:Z O
*I TAUGATE_8:A I
*CAP
1 TAUGATE_18:Z 0.0267
2 TAUNET_8:1 0.1079
3 TAUNET_8:2 0.3621
4 TAUGATE_8:A 0.1254
*RES
2 TAUGATE_18:Z TAUNET_8:1 0.3490
3 TAUNET_8:1 TAUNET_8:2 0.4751
4 TAUNET_8:2 TAUGATE_8:A 0.3195
*END

*D_NET nx22 1.2894
*CONN
*I TAUGATE_23:Z O
*P nx22 O
*CAP
1 TAUGATE_23:Z 0.2505
2 nx22:1 0.3990
3 nx22:2 0.0185
4 nx22:3 0.3777
5 nx22 0.2437
*RES
2 TAUGATE_23:Z nx22:1 0.3641
3 nx22:1 nx22:2 0.1411
4 nx22:2 nx22:3 0.2452
5 nx22:3 nx22 0.2723
*END

*D_NET TAUNET_26 0.3445
*CONN
*I TAUGATE_4:Z O
*I TAUGATE_26:A I
*CAP
1 TAUGATE_4:Z 0.2449
2 TAUNET_26:1 0.0917
3 TAUGATE_26:A 0.0078
*RES
2 TAUGATE_4:Z TAUNET_26:1 0.0227
3 TAUNET_26:1 TAUGATE_26:A 0.0264
*END

*D_NET TAUNET_2 0.9773
*CONN
*I TAUGATE_10:Z O
*I TAUGATE_2:A I
*CAP
1 TAUGATE_10:Z 0.1906
2 TAUNET_2:1 0.0937
3 TAUNET_2:2 0.2944
4 TAUGATE_2:A 0.3987
*RES
2 TAUGATE_10:Z TAUNET_2:1 0.0209
3 TAUNET_2:1 TAUNET_2:2 0.1182
4 TAUNET_2:2 TAUGATE_2:A 0.1067
*END

*D_NET TAUNET_6 2.0282
*CONN
*I TAUGATE_12:Z O
*I TAUGATE_6:A I
*CAP
1 TAUGATE_12:Z 0.3672
2 TAUNET_6:1 0.1157
3 TAUNET_6:2 0.1901
4 TAUNET_6:3 0.2138
5 TAUNET_6:4 0.5008
6 TAUNET_6:5 0.2979
7 TAUGATE_6:A 0.3428
*RES
2 TAUGATE_12:Z TAUNET_6:1 0.2325
3 TAUNET_6:1 TAUNET_6:2 0.2733
4 TAUNET_6:2 TAUNET_6:3 0.1266
5 TAUNET_6:3 TAUNET_6:4 0.3814
6 TAUNET_6:4 TAUNET_6:5 0.1363
7 TAUNET_6:5 TAUGATE_6:A 0.3277
*END

*D_NET TAUNET_23 1.7680
*CONN
*I TAUGATE_3:Z O
*I TAUGATE_23:A I
*CAP
1 TAUGATE_3:Z 0.4503
2 TAUNET_23:1 0.1603
3 TAUNET_23:2 0.4423
4 TAUNET_23:3 0.1159
5 TAUNET_23:4 0.4527
6 TAUGATE_23:A 0.1465
*RES
2 TAUGATE_3:Z TAUNET_23:1 0.1463
3 TAUNET_23:1 TAUNET_23:2 0.4621
4 TAUNET_23:2 TAUNET_23:3 0.4065
5 TAUNET_23:3 TAUNET_23:4 0.0227
6 TAUNET_23:4 TAUGATE_23:A 0.2236
*END

