*SPEF "IEEE 1481-1998"
*DESIGN "changes"
*DATE "Tue Dec 02 20:34:05 2014"
*VENDOR "TAU 2015 Contest"
*PROGRAM "Benchmark Parasitic Generator"
*VERSION "0.0"
*DESIGN_FLOW "NETLIST_TYPE_VERILOG"
*DIVIDER /
*DELIMITER :
*BUS_DELIMITER [ ]
*T_UNIT 1 PS
*C_UNIT 1 FF
*R_UNIT 1 KOHM
*L_UNIT 1 UH

*D_NET TAUNET_11 1.7439
*CONN
*P nx7 I
*I TAUGATE_11:A I
*CAP
1 nx7 0.2611
2 TAUNET_11:1 0.4098
3 TAUNET_11:2 0.5009
4 TAUNET_11:3 0.2843
5 TAUGATE_11:A 0.2878
*RES
2 nx7 TAUNET_11:1 0.1659
3 TAUNET_11:1 TAUNET_11:2 0.2742
4 TAUNET_11:2 TAUNET_11:3 0.3494
5 TAUNET_11:3 TAUGATE_11:A 0.1485
*END

*D_NET TAUNET_13 1.3760
*CONN
*P nx3 I
*I TAUGATE_13:A I
*CAP
1 nx3 0.2110
2 TAUNET_13:1 0.3070
3 TAUNET_13:2 0.3583
4 TAUNET_13:3 0.1395
5 TAUNET_13:4 0.0646
6 TAUNET_13:5 0.0794
7 TAUGATE_13:A 0.2161
*RES
2 nx3 TAUNET_13:1 0.1614
3 TAUNET_13:1 TAUNET_13:2 0.3312
4 TAUNET_13:2 TAUNET_13:3 0.3755
5 TAUNET_13:3 TAUNET_13:4 0.4644
6 TAUNET_13:4 TAUNET_13:5 0.4559
7 TAUNET_13:5 TAUGATE_13:A 0.4050
*END

*D_NET TAUNET_12 0.4849
*CONN
*I inst_3:ZN O
*I TAUGATE_12:A I
*CAP
1 inst_3:ZN 0.1670
2 TAUNET_12:1 0.2440
3 TAUNET_12:2 0.0332
4 TAUGATE_12:A 0.0406
*RES
2 inst_3:ZN TAUNET_12:1 0.2732
3 TAUNET_12:1 TAUNET_12:2 0.0073
4 TAUNET_12:2 TAUGATE_12:A 0.1308
*END

*D_NET TAUNET_34 1.8161
*CONN
*I TAUGATE_39:Z O
*I TAUGATE_34:A I
*CAP
1 TAUGATE_39:Z 0.2909
2 TAUNET_34:1 0.0740
3 TAUNET_34:2 0.4871
4 TAUNET_34:3 0.4951
5 TAUNET_34:4 0.4125
6 TAUGATE_34:A 0.0565
*RES
2 TAUGATE_39:Z TAUNET_34:1 0.1285
3 TAUNET_34:1 TAUNET_34:2 0.0292
4 TAUNET_34:2 TAUNET_34:3 0.2926
5 TAUNET_34:3 TAUNET_34:4 0.4507
6 TAUNET_34:4 TAUGATE_34:A 0.3356
*END

*D_NET TAUNET_7 1.9602
*CONN
*I TAUGATE_15:Z O
*I TAUGATE_7:A I
*CAP
1 TAUGATE_15:Z 0.3845
2 TAUNET_7:1 0.3056
3 TAUNET_7:2 0.3464
4 TAUNET_7:3 0.0305
5 TAUNET_7:4 0.2383
6 TAUNET_7:5 0.4020
7 TAUGATE_7:A 0.2529
*RES
2 TAUGATE_15:Z TAUNET_7:1 0.2665
3 TAUNET_7:1 TAUNET_7:2 0.4354
4 TAUNET_7:2 TAUNET_7:3 0.1977
5 TAUNET_7:3 TAUNET_7:4 0.0788
6 TAUNET_7:4 TAUNET_7:5 0.3276
7 TAUNET_7:5 TAUGATE_7:A 0.3833
*END

