*SPEF "IEEE 1481-1998"
*DESIGN "changes"
*DATE "Tue Dec 02 20:34:05 2014"
*VENDOR "TAU 2015 Contest"
*PROGRAM "Benchmark Parasitic Generator"
*VERSION "0.0"
*DESIGN_FLOW "NETLIST_TYPE_VERILOG"
*DIVIDER /
*DELIMITER :
*BUS_DELIMITER [ ]
*T_UNIT 1 PS
*C_UNIT 1 FF
*R_UNIT 1 KOHM
*L_UNIT 1 UH

*D_NET TAUNET_4 1.7439
*CONN
*I inst_3:ZN O
*I TAUGATE_4:A I
*CAP
1 inst_3:ZN 0.2611
2 TAUNET_4:1 0.4098
3 TAUNET_4:2 0.5009
4 TAUNET_4:3 0.2843
5 TAUGATE_4:A 0.2878
*RES
2 inst_3:ZN TAUNET_4:1 0.1659
3 TAUNET_4:1 TAUNET_4:2 0.2742
4 TAUNET_4:2 TAUNET_4:3 0.3494
5 TAUNET_4:3 TAUGATE_4:A 0.1485
*END

*D_NET TAUNET_2 1.3760
*CONN
*P nx6 I
*I TAUGATE_2:A I
*CAP
1 nx6 0.2110
2 TAUNET_2:1 0.3070
3 TAUNET_2:2 0.3583
4 TAUNET_2:3 0.1395
5 TAUNET_2:4 0.0646
6 TAUNET_2:5 0.0794
7 TAUGATE_2:A 0.2161
*RES
2 nx6 TAUNET_2:1 0.1614
3 TAUNET_2:1 TAUNET_2:2 0.3312
4 TAUNET_2:2 TAUNET_2:3 0.3755
5 TAUNET_2:3 TAUNET_2:4 0.4644
6 TAUNET_2:4 TAUNET_2:5 0.4559
7 TAUNET_2:5 TAUGATE_2:A 0.4050
*END

*D_NET net_3 1.9117
*CONN
*I TAUGATE_4:Z O
*I inst_5:A2 I
*I inst_4:A1 I
*CAP
1 TAUGATE_4:Z 0.1670
2 net_3:1 0.2440
3 net_3:2 0.0332
4 inst_5:A2 0.0406
5 net_3:3 0.3706
6 net_3:4 0.0740
7 net_3:5 0.4871
8 inst_4:A1 0.4951
*RES
2 TAUGATE_4:Z net_3:1 0.2732
3 net_3:1 net_3:2 0.0073
4 net_3:2 inst_5:A2 0.1308
5 net_3:1 net_3:3 0.4125
6 net_3:3 net_3:4 0.0565
7 net_3:4 net_3:5 0.1285
8 net_3:5 inst_4:A1 0.0292
*END

*D_NET TAUNET_3 2.3577
*CONN
*I inst_5:ZN O
*I TAUGATE_3:A I
*CAP
1 inst_5:ZN 0.4507
2 TAUNET_3:1 0.3995
3 TAUNET_3:2 0.3845
4 TAUNET_3:3 0.4708
5 TAUNET_3:4 0.3056
6 TAUGATE_3:A 0.3464
*RES
2 inst_5:ZN TAUNET_3:1 0.0305
3 TAUNET_3:1 TAUNET_3:2 0.2383
4 TAUNET_3:2 TAUNET_3:3 0.4020
5 TAUNET_3:3 TAUNET_3:4 0.2529
6 TAUNET_3:4 TAUGATE_3:A 0.2665
*END

*D_NET nx22 0.9086
*CONN
*I TAUGATE_3:Z O
*P nx22 O
*CAP
1 TAUGATE_3:Z 0.1977
2 nx22:1 0.3276
3 nx22 0.3833
*RES
2 TAUGATE_3:Z nx22:1 0.3292
3 nx22:1 nx22 0.0716
*END

*D_NET nx6 1.3846
*CONN
*I TAUGATE_2:Z O
*I inst_0:A2 I
*CAP
1 TAUGATE_2:Z 0.1922
2 nx6:1 0.1322
3 nx6:2 0.1905
4 nx6:3 0.4017
5 inst_0:A2 0.4680
*RES
2 TAUGATE_2:Z nx6:1 0.2976
3 nx6:1 nx6:2 0.2331
4 nx6:2 nx6:3 0.2927
5 nx6:3 inst_0:A2 0.3943
*END

