*SPEF "IEEE 1481-1998"
*DESIGN "changes"
*DATE "Tue Dec 02 19:28:47 2014"
*VENDOR "TAU 2015 Contest"
*PROGRAM "Benchmark Parasitic Generator"
*VERSION "0.0"
*DESIGN_FLOW "NETLIST_TYPE_VERILOG"
*DIVIDER /
*DELIMITER :
*BUS_DELIMITER [ ]
*T_UNIT 1 PS
*C_UNIT 1 FF
*R_UNIT 1 KOHM
*L_UNIT 1 UH

*D_NET TAUNET_13 1.7439
*CONN
*I inst_39189:ZN O
*I TAUGATE_13:A I
*CAP
1 inst_39189:ZN 0.2611
2 TAUNET_13:1 0.4098
3 TAUNET_13:2 0.5009
4 TAUNET_13:3 0.2843
5 TAUGATE_13:A 0.2878
*RES
2 inst_39189:ZN TAUNET_13:1 0.1659
3 TAUNET_13:1 TAUNET_13:2 0.2742
4 TAUNET_13:2 TAUNET_13:3 0.3494
5 TAUNET_13:3 TAUGATE_13:A 0.1485
*END

*D_NET TAUNET_12 1.3760
*CONN
*I inst_78360:ZN O
*I TAUGATE_12:A I
*CAP
1 inst_78360:ZN 0.2110
2 TAUNET_12:1 0.3070
3 TAUNET_12:2 0.3583
4 TAUNET_12:3 0.1395
5 TAUNET_12:4 0.0646
6 TAUNET_12:5 0.0794
7 TAUGATE_12:A 0.2161
*RES
2 inst_78360:ZN TAUNET_12:1 0.1614
3 TAUNET_12:1 TAUNET_12:2 0.3312
4 TAUNET_12:2 TAUNET_12:3 0.3755
5 TAUNET_12:3 TAUNET_12:4 0.4644
6 TAUNET_12:4 TAUNET_12:5 0.4559
7 TAUNET_12:5 TAUGATE_12:A 0.4050
*END

*D_NET net_46731 0.4849
*CONN
*I TAUGATE_24:Z O
*I inst_21934:A3 I
*CAP
1 TAUGATE_24:Z 0.1670
2 net_46731:1 0.2440
3 net_46731:2 0.0332
4 inst_21934:A3 0.0406
*RES
2 TAUGATE_24:Z net_46731:1 0.2732
3 net_46731:1 net_46731:2 0.0073
4 net_46731:2 inst_21934:A3 0.1308
*END

*D_NET net_70711 1.8161
*CONN
*I TAUGATE_46:Z O
*I inst_22239:A3 I
*CAP
1 TAUGATE_46:Z 0.2909
2 net_70711:1 0.0740
3 net_70711:2 0.4871
4 net_70711:3 0.4951
5 net_70711:4 0.4125
6 inst_22239:A3 0.0565
*RES
2 TAUGATE_46:Z net_70711:1 0.1285
3 net_70711:1 net_70711:2 0.0292
4 net_70711:2 net_70711:3 0.2926
5 net_70711:3 net_70711:4 0.4507
6 net_70711:4 inst_22239:A3 0.3356
*END

*D_NET net_76873 4.2828
*CONN
*I TAUGATE_36:Z O
*I inst_31404:A2 I
*I inst_68518:D I
*I inst_35919:A2 I
*CAP
1 TAUGATE_36:Z 0.3845
2 net_76873:1 0.3056
3 net_76873:2 0.3464
4 net_76873:3 0.0305
5 net_76873:4 0.2383
6 net_76873:5 0.4020
7 inst_35919:A2 0.2529
8 net_76873:6 0.2236
9 inst_68518:D 0.1922
10 net_76873:7 0.4680
11 net_76873:8 0.2976
12 net_76873:9 0.2331
13 net_76873:10 0.2927
14 net_76873:11 0.3943
15 inst_31404:A2 0.2211
*RES
2 TAUGATE_36:Z net_76873:1 0.2665
3 net_76873:1 net_76873:2 0.4354
4 net_76873:2 net_76873:3 0.1977
5 net_76873:3 net_76873:4 0.0788
6 net_76873:4 net_76873:5 0.3276
7 net_76873:5 inst_35919:A2 0.3833
8 net_76873:4 net_76873:6 0.2805
9 net_76873:6 inst_68518:D 0.1322
10 net_76873:3 net_76873:7 0.1955
11 net_76873:7 net_76873:8 0.1868
12 net_76873:8 net_76873:9 0.4889
13 net_76873:9 net_76873:10 0.0703
14 net_76873:10 net_76873:11 0.3298
15 net_76873:11 inst_31404:A2 0.4131
*END

*D_NET net_45323 1.4221
*CONN
*I TAUGATE_16:Z O
*I inst_31276:A2 I
*CAP
1 TAUGATE_16:Z 0.2621
2 net_45323:1 0.1808
3 net_45323:2 0.0717
4 net_45323:3 0.3990
5 net_45323:4 0.4035
6 net_45323:5 0.0219
7 inst_31276:A2 0.0830
*RES
2 TAUGATE_16:Z net_45323:1 0.4539
3 net_45323:1 net_45323:2 0.1250
4 net_45323:2 net_45323:3 0.3196
5 net_45323:3 net_45323:4 0.4976
6 net_45323:4 net_45323:5 0.3591
7 net_45323:5 inst_31276:A2 0.2780
*END

*D_NET net_18171 2.6031
*CONN
*I TAUGATE_37:Z O
*I inst_76298:A I
*CAP
1 TAUGATE_37:Z 0.1593
2 net_18171:1 0.3498
3 net_18171:2 0.4055
4 net_18171:3 0.4519
5 net_18171:4 0.4658
6 net_18171:5 0.3690
7 inst_76298:A 0.4019
*RES
2 TAUGATE_37:Z net_18171:1 0.0632
3 net_18171:1 net_18171:2 0.2503
4 net_18171:2 net_18171:3 0.4700
5 net_18171:3 net_18171:4 0.3789
6 net_18171:4 net_18171:5 0.3545
7 net_18171:5 inst_76298:A 0.1033
*END

*D_NET TAUNET_35 1.3094
*CONN
*I inst_45907:ZN O
*I TAUGATE_35:A I
*CAP
1 inst_45907:ZN 0.1782
2 TAUNET_35:1 0.0376
3 TAUNET_35:2 0.0972
4 TAUNET_35:3 0.3594
5 TAUNET_35:4 0.0525
6 TAUNET_35:5 0.3248
7 TAUGATE_35:A 0.2597
*RES
2 inst_45907:ZN TAUNET_35:1 0.1267
3 TAUNET_35:1 TAUNET_35:2 0.3840
4 TAUNET_35:2 TAUNET_35:3 0.2434
5 TAUNET_35:3 TAUNET_35:4 0.3726
6 TAUNET_35:4 TAUNET_35:5 0.2980
7 TAUNET_35:5 TAUGATE_35:A 0.2454
*END

*D_NET net_12593 5.3268
*CONN
*I TAUGATE_43:Z O
*I inst_76575:A I
*I inst_78576:A1 I
*I inst_74415:A I
*I inst_76577:A I
*I inst_3941:A1 I
*I inst_9122:A I
*CAP
1 TAUGATE_43:Z 0.1921
2 net_12593:1 0.4443
3 net_12593:2 0.1288
4 inst_9122:A 0.3022
5 net_12593:3 0.0282
6 net_12593:4 0.3089
7 net_12593:5 0.0253
8 net_12593:6 0.3105
9 inst_78576:A1 0.1881
10 net_12593:7 0.3854
11 inst_74415:A 0.3580
12 net_12593:8 0.2154
13 net_12593:9 0.4921
14 net_12593:10 0.1648
15 inst_76577:A 0.1855
16 net_12593:11 0.1494
17 net_12593:12 0.3290
18 net_12593:13 0.1620
19 net_12593:14 0.0029
20 net_12593:15 0.2883
21 inst_3941:A1 0.1903
22 net_12593:16 0.4104
23 inst_76575:A 0.0649
*RES
2 TAUGATE_43:Z net_12593:1 0.1405
3 net_12593:1 net_12593:2 0.0668
4 net_12593:2 inst_9122:A 0.3699
5 net_12593:1 net_12593:3 0.2034
6 net_12593:3 net_12593:4 0.1592
7 net_12593:4 net_12593:5 0.3147
8 net_12593:5 net_12593:6 0.2761
9 net_12593:6 inst_78576:A1 0.3643
10 net_12593:3 net_12593:7 0.3774
11 net_12593:7 inst_74415:A 0.2731
12 net_12593:1 net_12593:8 0.0112
13 net_12593:8 net_12593:9 0.3530
14 net_12593:9 net_12593:10 0.1128
15 net_12593:10 inst_76577:A 0.2239
16 net_12593:2 net_12593:11 0.4381
17 net_12593:11 net_12593:12 0.3484
18 net_12593:12 net_12593:13 0.0801
19 net_12593:13 net_12593:14 0.1392
20 net_12593:14 net_12593:15 0.1891
21 net_12593:15 inst_3941:A1 0.0464
22 net_12593:1 net_12593:16 0.0510
23 net_12593:16 inst_76575:A 0.1600
*END

*D_NET net_19601 1.7438
*CONN
*I TAUGATE_11:Z O
*I inst_54629:A I
*CAP
1 TAUGATE_11:Z 0.4787
2 net_19601:1 0.4606
3 net_19601:2 0.3388
4 inst_54629:A 0.4657
*RES
2 TAUGATE_11:Z net_19601:1 0.3595
3 net_19601:1 net_19601:2 0.2471
4 net_19601:2 inst_54629:A 0.0832
*END

*D_NET TAUNET_46 0.8209
*CONN
*I inst_3288:ZN O
*I TAUGATE_46:A I
*CAP
1 inst_3288:ZN 0.3736
2 TAUNET_46:1 0.3644
3 TAUGATE_46:A 0.0829
*RES
2 inst_3288:ZN TAUNET_46:1 0.1977
3 TAUNET_46:1 TAUGATE_46:A 0.4694
*END

*D_NET TAUNET_24 2.0853
*CONN
*I inst_48461:ZN O
*I TAUGATE_24:A I
*CAP
1 inst_48461:ZN 0.3882
2 TAUNET_24:1 0.0413
3 TAUNET_24:2 0.4651
4 TAUNET_24:3 0.4065
5 TAUNET_24:4 0.3164
6 TAUNET_24:5 0.3513
7 TAUGATE_24:A 0.1165
*RES
2 inst_48461:ZN TAUNET_24:1 0.0986
3 TAUNET_24:1 TAUNET_24:2 0.2243
4 TAUNET_24:2 TAUNET_24:3 0.1286
5 TAUNET_24:3 TAUNET_24:4 0.4269
6 TAUNET_24:4 TAUNET_24:5 0.2482
7 TAUNET_24:5 TAUGATE_24:A 0.2195
*END

*D_NET net_16203 1.7569
*CONN
*I TAUGATE_55:Z O
*I inst_76354:A I
*CAP
1 TAUGATE_55:Z 0.4091
2 net_16203:1 0.3587
3 net_16203:2 0.1869
4 net_16203:3 0.4974
5 inst_76354:A 0.3047
*RES
2 TAUGATE_55:Z net_16203:1 0.1200
3 net_16203:1 net_16203:2 0.4969
4 net_16203:2 net_16203:3 0.1210
5 net_16203:3 inst_76354:A 0.1733
*END

*D_NET TAUNET_16 1.1896
*CONN
*I inst_59578:ZN O
*I TAUGATE_16:A I
*CAP
1 inst_59578:ZN 0.0283
2 TAUNET_16:1 0.2945
3 TAUNET_16:2 0.3177
4 TAUNET_16:3 0.2101
5 TAUGATE_16:A 0.3390
*RES
2 inst_59578:ZN TAUNET_16:1 0.2046
3 TAUNET_16:1 TAUNET_16:2 0.3404
4 TAUNET_16:2 TAUNET_16:3 0.1317
5 TAUNET_16:3 TAUGATE_16:A 0.3617
*END

*D_NET TAUNET_31 1.2055
*CONN
*I inst_70086:Q O
*I TAUGATE_31:A I
*CAP
1 inst_70086:Q 0.3629
2 TAUNET_31:1 0.3900
3 TAUNET_31:2 0.0557
4 TAUNET_31:3 0.1253
5 TAUGATE_31:A 0.2716
*RES
2 inst_70086:Q TAUNET_31:1 0.3735
3 TAUNET_31:1 TAUNET_31:2 0.1079
4 TAUNET_31:2 TAUNET_31:3 0.3323
5 TAUNET_31:3 TAUGATE_31:A 0.2907
*END

*D_NET TAUNET_25 1.4383
*CONN
*I inst_45361:ZN O
*I TAUGATE_25:A I
*CAP
1 inst_45361:ZN 0.4966
2 TAUNET_25:1 0.2702
3 TAUNET_25:2 0.2135
4 TAUNET_25:3 0.0419
5 TAUNET_25:4 0.2773
6 TAUNET_25:5 0.0903
7 TAUGATE_25:A 0.0485
*RES
2 inst_45361:ZN TAUNET_25:1 0.4602
3 TAUNET_25:1 TAUNET_25:2 0.4262
4 TAUNET_25:2 TAUNET_25:3 0.2009
5 TAUNET_25:3 TAUNET_25:4 0.3114
6 TAUNET_25:4 TAUNET_25:5 0.3090
7 TAUNET_25:5 TAUGATE_25:A 0.3972
*END

*D_NET TAUNET_27 1.1430
*CONN
*I inst_15787:ZN O
*I TAUGATE_27:A I
*CAP
1 inst_15787:ZN 0.2443
2 TAUNET_27:1 0.3734
3 TAUNET_27:2 0.1567
4 TAUNET_27:3 0.1247
5 TAUGATE_27:A 0.2439
*RES
2 inst_15787:ZN TAUNET_27:1 0.2588
3 TAUNET_27:1 TAUNET_27:2 0.4474
4 TAUNET_27:2 TAUNET_27:3 0.3528
5 TAUNET_27:3 TAUGATE_27:A 0.0472
*END

*D_NET net_14280 2.2648
*CONN
*I TAUGATE_22:Z O
*I inst_2169:SI I
*I inst_61163:A I
*CAP
1 TAUGATE_22:Z 0.1981
2 net_14280:1 0.0169
3 net_14280:2 0.4026
4 net_14280:3 0.4684
5 net_14280:4 0.2490
6 inst_61163:A 0.0579
7 net_14280:5 0.0209
8 net_14280:6 0.4380
9 inst_2169:SI 0.4130
*RES
2 TAUGATE_22:Z net_14280:1 0.0423
3 net_14280:1 net_14280:2 0.2861
4 net_14280:2 net_14280:3 0.4278
5 net_14280:3 net_14280:4 0.3875
6 net_14280:4 inst_61163:A 0.4796
7 net_14280:4 net_14280:5 0.4990
8 net_14280:5 net_14280:6 0.2134
9 net_14280:6 inst_2169:SI 0.1115
*END

*D_NET TAUNET_28 1.6629
*CONN
*I inst_57471:ZN O
*I TAUGATE_28:A I
*CAP
1 inst_57471:ZN 0.3666
2 TAUNET_28:1 0.4464
3 TAUNET_28:2 0.2438
4 TAUNET_28:3 0.2969
5 TAUGATE_28:A 0.3091
*RES
2 inst_57471:ZN TAUNET_28:1 0.5006
3 TAUNET_28:1 TAUNET_28:2 0.2264
4 TAUNET_28:2 TAUNET_28:3 0.3973
5 TAUNET_28:3 TAUGATE_28:A 0.2044
*END

*D_NET TAUNET_57 1.5866
*CONN
*I inst_60646:ZN O
*I TAUGATE_57:A I
*CAP
1 inst_60646:ZN 0.3886
2 TAUNET_57:1 0.2468
3 TAUNET_57:2 0.4002
4 TAUNET_57:3 0.3652
5 TAUGATE_57:A 0.1857
*RES
2 inst_60646:ZN TAUNET_57:1 0.0562
3 TAUNET_57:1 TAUNET_57:2 0.0882
4 TAUNET_57:2 TAUNET_57:3 0.4386
5 TAUNET_57:3 TAUGATE_57:A 0.2715
*END

*D_NET net_21693 0.8240
*CONN
*I TAUGATE_33:Z O
*I inst_38774:A1 I
*CAP
1 TAUGATE_33:Z 0.4145
2 net_21693:1 0.1130
3 net_21693:2 0.1026
4 inst_38774:A1 0.1939
*RES
2 TAUGATE_33:Z net_21693:1 0.1095
3 net_21693:1 net_21693:2 0.0212
4 net_21693:2 inst_38774:A1 0.1417
*END

*D_NET net_18053 6.6339
*CONN
*I TAUGATE_35:Z O
*I inst_13192:A2 I
*I inst_20403:A2 I
*I inst_24162:A1 I
*I inst_11759:A1 I
*I inst_17688:A1 I
*I inst_27761:A1 I
*I inst_20993:A2 I
*CAP
1 TAUGATE_35:Z 0.4826
2 net_18053:1 0.4033
3 net_18053:2 0.3663
4 inst_11759:A1 0.2540
5 net_18053:3 0.0863
6 inst_20403:A2 0.3102
7 net_18053:4 0.4441
8 net_18053:5 0.4218
9 net_18053:6 0.0848
10 net_18053:7 0.0266
11 inst_24162:A1 0.0274
12 net_18053:8 0.3124
13 net_18053:9 0.3685
14 net_18053:10 0.4317
15 net_18053:11 0.1801
16 net_18053:12 0.2826
17 inst_13192:A2 0.3420
18 net_18053:13 0.3721
19 inst_17688:A1 0.4648
20 net_18053:14 0.0264
21 net_18053:15 0.2502
22 inst_27761:A1 0.2506
23 net_18053:16 0.2747
24 inst_20993:A2 0.1704
*RES
2 TAUGATE_35:Z net_18053:1 0.0526
3 net_18053:1 net_18053:2 0.2388
4 net_18053:2 inst_11759:A1 0.1787
5 net_18053:2 net_18053:3 0.1239
6 net_18053:3 inst_20403:A2 0.2473
7 net_18053:2 net_18053:4 0.4218
8 net_18053:4 net_18053:5 0.2061
9 net_18053:5 net_18053:6 0.2110
10 net_18053:6 net_18053:7 0.4583
11 net_18053:7 inst_24162:A1 0.3985
12 net_18053:1 net_18053:8 0.0965
13 net_18053:8 net_18053:9 0.2555
14 net_18053:9 net_18053:10 0.1304
15 net_18053:10 net_18053:11 0.3675
16 net_18053:11 net_18053:12 0.4634
17 net_18053:12 inst_13192:A2 0.2869
18 net_18053:1 net_18053:13 0.2376
19 net_18053:13 inst_17688:A1 0.1146
20 net_18053:8 net_18053:14 0.4486
21 net_18053:14 net_18053:15 0.0641
22 net_18053:15 inst_27761:A1 0.0138
23 net_18053:7 net_18053:16 0.2303
24 net_18053:16 inst_20993:A2 0.0121
*END

*D_NET TAUNET_37 0.6221
*CONN
*I inst_19408:ZN O
*I TAUGATE_37:A I
*CAP
1 inst_19408:ZN 0.0267
2 TAUNET_37:1 0.1079
3 TAUNET_37:2 0.3621
4 TAUGATE_37:A 0.1254
*RES
2 inst_19408:ZN TAUNET_37:1 0.3490
3 TAUNET_37:1 TAUNET_37:2 0.4751
4 TAUNET_37:2 TAUGATE_37:A 0.3195
*END

*D_NET TAUNET_32 1.2894
*CONN
*I inst_38220:ZN O
*I TAUGATE_32:A I
*CAP
1 inst_38220:ZN 0.2505
2 TAUNET_32:1 0.3990
3 TAUNET_32:2 0.0185
4 TAUNET_32:3 0.3777
5 TAUGATE_32:A 0.2437
*RES
2 inst_38220:ZN TAUNET_32:1 0.3641
3 TAUNET_32:1 TAUNET_32:2 0.1411
4 TAUNET_32:2 TAUNET_32:3 0.2452
5 TAUNET_32:3 TAUGATE_32:A 0.2723
*END

*D_NET TAUNET_38 0.3445
*CONN
*I inst_30018:ZN O
*I TAUGATE_38:A I
*CAP
1 inst_30018:ZN 0.2449
2 TAUNET_38:1 0.0917
3 TAUGATE_38:A 0.0078
*RES
2 inst_30018:ZN TAUNET_38:1 0.0227
3 TAUNET_38:1 TAUGATE_38:A 0.0264
*END

*D_NET TAUNET_40 0.9773
*CONN
*I inst_37958:ZN O
*I TAUGATE_40:A I
*CAP
1 inst_37958:ZN 0.1906
2 TAUNET_40:1 0.0937
3 TAUNET_40:2 0.2944
4 TAUGATE_40:A 0.3987
*RES
2 inst_37958:ZN TAUNET_40:1 0.0209
3 TAUNET_40:1 TAUNET_40:2 0.1182
4 TAUNET_40:2 TAUGATE_40:A 0.1067
*END

*D_NET TAUNET_20 2.0282
*CONN
*I inst_66068:Q O
*I TAUGATE_20:A I
*CAP
1 inst_66068:Q 0.3672
2 TAUNET_20:1 0.1157
3 TAUNET_20:2 0.1901
4 TAUNET_20:3 0.2138
5 TAUNET_20:4 0.5008
6 TAUNET_20:5 0.2979
7 TAUGATE_20:A 0.3428
*RES
2 inst_66068:Q TAUNET_20:1 0.2325
3 TAUNET_20:1 TAUNET_20:2 0.2733
4 TAUNET_20:2 TAUNET_20:3 0.1266
5 TAUNET_20:3 TAUNET_20:4 0.3814
6 TAUNET_20:4 TAUNET_20:5 0.1363
7 TAUNET_20:5 TAUGATE_20:A 0.3277
*END

*D_NET net_8502 1.7680
*CONN
*I TAUGATE_48:Z O
*I inst_25045:A3 I
*CAP
1 TAUGATE_48:Z 0.4503
2 net_8502:1 0.1603
3 net_8502:2 0.4423
4 net_8502:3 0.1159
5 net_8502:4 0.4527
6 inst_25045:A3 0.1465
*RES
2 TAUGATE_48:Z net_8502:1 0.1463
3 net_8502:1 net_8502:2 0.4621
4 net_8502:2 net_8502:3 0.4065
5 net_8502:3 net_8502:4 0.0227
6 net_8502:4 inst_25045:A3 0.2236
*END

*D_NET net_28538 1.0395
*CONN
*I TAUGATE_47:Z O
*I inst_16679:A2 I
*CAP
1 TAUGATE_47:Z 0.0715
2 net_28538:1 0.1861
3 net_28538:2 0.4367
4 inst_16679:A2 0.3452
*RES
2 TAUGATE_47:Z net_28538:1 0.0313
3 net_28538:1 net_28538:2 0.1217
4 net_28538:2 inst_16679:A2 0.0111
*END

*D_NET TAUNET_14 1.2561
*CONN
*I inst_45574:ZN O
*I TAUGATE_14:A I
*CAP
1 inst_45574:ZN 0.0613
2 TAUNET_14:1 0.4407
3 TAUNET_14:2 0.4978
4 TAUGATE_14:A 0.2563
*RES
2 inst_45574:ZN TAUNET_14:1 0.2595
3 TAUNET_14:1 TAUNET_14:2 0.2603
4 TAUNET_14:2 TAUGATE_14:A 0.2874
*END

*D_NET net_66323 2.9333
*CONN
*I TAUGATE_13:Z O
*I inst_31557:A2 I
*I inst_54378:A I
*I inst_48910:A I
*I inst_25843:A3 I
*CAP
1 TAUGATE_13:Z 0.2768
2 net_66323:1 0.2053
3 net_66323:2 0.2140
4 inst_48910:A 0.3306
5 net_66323:3 0.4103
6 net_66323:4 0.0845
7 inst_54378:A 0.1888
8 net_66323:5 0.2069
9 inst_31557:A2 0.0491
10 net_66323:6 0.1831
11 net_66323:7 0.4110
12 net_66323:8 0.0191
13 inst_25843:A3 0.3538
*RES
2 TAUGATE_13:Z net_66323:1 0.1569
3 net_66323:1 net_66323:2 0.2580
4 net_66323:2 inst_48910:A 0.2138
5 net_66323:1 net_66323:3 0.1436
6 net_66323:3 net_66323:4 0.1762
7 net_66323:4 inst_54378:A 0.4748
8 net_66323:1 net_66323:5 0.4137
9 net_66323:5 inst_31557:A2 0.3046
10 net_66323:4 net_66323:6 0.4300
11 net_66323:6 net_66323:7 0.3629
12 net_66323:7 net_66323:8 0.0787
13 net_66323:8 inst_25843:A3 0.2007
*END

*D_NET net_76863 2.1629
*CONN
*I TAUGATE_26:Z O
*I inst_66548:D I
*CAP
1 TAUGATE_26:Z 0.4025
2 net_76863:1 0.3538
3 net_76863:2 0.4649
4 net_76863:3 0.0482
5 net_76863:4 0.1062
6 net_76863:5 0.2963
7 inst_66548:D 0.4911
*RES
2 TAUGATE_26:Z net_76863:1 0.2002
3 net_76863:1 net_76863:2 0.2573
4 net_76863:2 net_76863:3 0.3761
5 net_76863:3 net_76863:4 0.0616
6 net_76863:4 net_76863:5 0.4298
7 net_76863:5 inst_66548:D 0.2857
*END

*D_NET net_20783 0.6543
*CONN
*I TAUGATE_10:Z O
*I inst_8479:B1 I
*CAP
1 TAUGATE_10:Z 0.0470
2 net_20783:1 0.1738
3 inst_8479:B1 0.4336
*RES
2 TAUGATE_10:Z net_20783:1 0.4556
3 net_20783:1 inst_8479:B1 0.1284
*END

*D_NET TAUNET_49 1.6488
*CONN
*I inst_36102:ZN O
*I TAUGATE_49:A I
*CAP
1 inst_36102:ZN 0.1731
2 TAUNET_49:1 0.3095
3 TAUNET_49:2 0.4895
4 TAUNET_49:3 0.4033
5 TAUGATE_49:A 0.2734
*RES
2 inst_36102:ZN TAUNET_49:1 0.3461
3 TAUNET_49:1 TAUNET_49:2 0.3729
4 TAUNET_49:2 TAUNET_49:3 0.0418
5 TAUNET_49:3 TAUGATE_49:A 0.3671
*END

*D_NET net_37216 1.9467
*CONN
*I TAUGATE_27:Z O
*I inst_50299:A I
*I inst_34001:A2 I
*CAP
1 TAUGATE_27:Z 0.1458
2 net_37216:1 0.0683
3 net_37216:2 0.2135
4 net_37216:3 0.4484
5 net_37216:4 0.1379
6 net_37216:5 0.1139
7 inst_34001:A2 0.0489
8 net_37216:6 0.2818
9 net_37216:7 0.3290
10 inst_50299:A 0.1592
*RES
2 TAUGATE_27:Z net_37216:1 0.0861
3 net_37216:1 net_37216:2 0.1477
4 net_37216:2 net_37216:3 0.4806
5 net_37216:3 net_37216:4 0.3473
6 net_37216:4 net_37216:5 0.1114
7 net_37216:5 inst_34001:A2 0.0198
8 net_37216:3 net_37216:6 0.4236
9 net_37216:6 net_37216:7 0.3328
10 net_37216:7 inst_50299:A 0.1906
*END

*D_NET net_2432 1.5747
*CONN
*I TAUGATE_17:Z O
*I inst_71402:D I
*CAP
1 TAUGATE_17:Z 0.4347
2 net_2432:1 0.1394
3 net_2432:2 0.0096
4 net_2432:3 0.4963
5 net_2432:4 0.2377
6 inst_71402:D 0.2571
*RES
2 TAUGATE_17:Z net_2432:1 0.3610
3 net_2432:1 net_2432:2 0.0042
4 net_2432:2 net_2432:3 0.2690
5 net_2432:3 net_2432:4 0.3841
6 net_2432:4 inst_71402:D 0.3400
*END

*D_NET net_70873 1.2277
*CONN
*I TAUGATE_51:Z O
*I inst_76892:B1 I
*CAP
1 TAUGATE_51:Z 0.3112
2 net_70873:1 0.4134
3 net_70873:2 0.0741
4 inst_76892:B1 0.4290
*RES
2 TAUGATE_51:Z net_70873:1 0.4891
3 net_70873:1 net_70873:2 0.0621
4 net_70873:2 inst_76892:B1 0.2122
*END

*D_NET net_78587 10.7412
*CONN
*I TAUGATE_50:Z O
*I inst_41556:A1 I
*I inst_56449:A I
*I inst_51542:A I
*I inst_9100:A I
*I inst_42005:A1 I
*I inst_76054:A I
*I inst_42004:A1 I
*I inst_76540:A I
*I inst_23217:A2 I
*I inst_38276:A1 I
*I inst_10224:C1 I
*I inst_78219:A1 I
*CAP
1 TAUGATE_50:Z 0.1253
2 net_78587:1 0.2343
3 net_78587:2 0.1106
4 net_78587:3 0.0283
5 inst_42005:A1 0.2644
6 net_78587:4 0.0520
7 net_78587:5 0.1787
8 net_78587:6 0.3277
9 inst_56449:A 0.2308
10 net_78587:7 0.3450
11 inst_51542:A 0.2552
12 net_78587:8 0.2132
13 net_78587:9 0.3448
14 inst_9100:A 0.2539
15 net_78587:10 0.3825
16 inst_41556:A1 0.4916
17 net_78587:11 0.0730
18 inst_76054:A 0.2996
19 net_78587:12 0.4347
20 net_78587:13 0.2976
21 inst_42004:A1 0.3531
22 net_78587:14 0.4269
23 net_78587:15 0.0493
24 net_78587:16 0.0341
25 inst_76540:A 0.3020
26 net_78587:17 0.2210
27 net_78587:18 0.0970
28 net_78587:19 0.2798
29 inst_23217:A2 0.3150
30 net_78587:20 0.0610
31 net_78587:21 0.4010
32 net_78587:22 0.2910
33 net_78587:23 0.3768
34 inst_38276:A1 0.3083
35 net_78587:24 0.3638
36 net_78587:25 0.4097
37 net_78587:26 0.2418
38 inst_10224:C1 0.4080
39 net_78587:27 0.3093
40 net_78587:28 0.3342
41 inst_78219:A1 0.2150
*RES
2 TAUGATE_50:Z net_78587:1 0.3395
3 net_78587:1 net_78587:2 0.4160
4 net_78587:2 net_78587:3 0.1311
5 net_78587:3 inst_42005:A1 0.1702
6 net_78587:2 net_78587:4 0.1825
7 net_78587:4 net_78587:5 0.4154
8 net_78587:5 net_78587:6 0.4205
9 net_78587:6 inst_56449:A 0.1921
10 net_78587:4 net_78587:7 0.2397
11 net_78587:7 inst_51542:A 0.3943
12 net_78587:6 net_78587:8 0.0169
13 net_78587:8 net_78587:9 0.2910
14 net_78587:9 inst_9100:A 0.3418
15 net_78587:5 net_78587:10 0.0258
16 net_78587:10 inst_41556:A1 0.0722
17 net_78587:3 net_78587:11 0.1500
18 net_78587:11 inst_76054:A 0.2720
19 net_78587:2 net_78587:12 0.0316
20 net_78587:12 net_78587:13 0.1823
21 net_78587:13 inst_42004:A1 0.0755
22 net_78587:10 net_78587:14 0.3389
23 net_78587:14 net_78587:15 0.4000
24 net_78587:15 net_78587:16 0.0188
25 net_78587:16 inst_76540:A 0.4709
26 net_78587:4 net_78587:17 0.0137
27 net_78587:17 net_78587:18 0.2108
28 net_78587:18 net_78587:19 0.3101
29 net_78587:19 inst_23217:A2 0.0161
30 net_78587:8 net_78587:20 0.1250
31 net_78587:20 net_78587:21 0.3526
32 net_78587:21 net_78587:22 0.3715
33 net_78587:22 net_78587:23 0.3144
34 net_78587:23 inst_38276:A1 0.3618
35 net_78587:4 net_78587:24 0.3118
36 net_78587:24 net_78587:25 0.4981
37 net_78587:25 net_78587:26 0.3134
38 net_78587:26 inst_10224:C1 0.4059
39 net_78587:5 net_78587:27 0.0109
40 net_78587:27 net_78587:28 0.1830
41 net_78587:28 inst_78219:A1 0.2298
*END

*D_NET net_74812 0.1587
*CONN
*I TAUGATE_20:Z O
*I inst_66056:D I
*CAP
1 TAUGATE_20:Z 0.0044
2 net_74812:1 0.0476
3 net_74812:2 0.0521
4 inst_66056:D 0.0546
*RES
2 TAUGATE_20:Z net_74812:1 0.0043
3 net_74812:1 net_74812:2 0.2737
4 net_74812:2 inst_66056:D 0.4724
*END

*D_NET TAUNET_50 1.0994
*CONN
*I inst_45684:ZN O
*I TAUGATE_50:A I
*CAP
1 inst_45684:ZN 0.2426
2 TAUNET_50:1 0.2784
3 TAUNET_50:2 0.2008
4 TAUGATE_50:A 0.3776
*RES
2 inst_45684:ZN TAUNET_50:1 0.2937
3 TAUNET_50:1 TAUNET_50:2 0.0093
4 TAUNET_50:2 TAUGATE_50:A 0.2822
*END

*D_NET TAUNET_23 1.0927
*CONN
*I inst_77960:ZN O
*I TAUGATE_23:A I
*CAP
1 inst_77960:ZN 0.0309
2 TAUNET_23:1 0.3809
3 TAUNET_23:2 0.3567
4 TAUGATE_23:A 0.3242
*RES
2 inst_77960:ZN TAUNET_23:1 0.2336
3 TAUNET_23:1 TAUNET_23:2 0.3863
4 TAUNET_23:2 TAUGATE_23:A 0.2365
*END

*D_NET TAUNET_39 1.1858
*CONN
*I inst_3382:ZN O
*I TAUGATE_39:A I
*CAP
1 inst_3382:ZN 0.3572
2 TAUNET_39:1 0.2185
3 TAUNET_39:2 0.2266
4 TAUNET_39:3 0.2538
5 TAUGATE_39:A 0.1297
*RES
2 inst_3382:ZN TAUNET_39:1 0.4791
3 TAUNET_39:1 TAUNET_39:2 0.2417
4 TAUNET_39:2 TAUNET_39:3 0.2444
5 TAUNET_39:3 TAUGATE_39:A 0.4262
*END

*D_NET net_36057 1.0967
*CONN
*I TAUGATE_15:Z O
*I inst_22902:A3 I
*CAP
1 TAUGATE_15:Z 0.3015
2 net_36057:1 0.3035
3 net_36057:2 0.4053
4 inst_22902:A3 0.0863
*RES
2 TAUGATE_15:Z net_36057:1 0.2362
3 net_36057:1 net_36057:2 0.1365
4 net_36057:2 inst_22902:A3 0.0277
*END

*D_NET net_73100 9.2515
*CONN
*I TAUGATE_14:Z O
*I inst_76744:A I
*I inst_75564:B1 I
*I inst_8237:A I
*I inst_76013:A I
*I inst_9124:A I
*I inst_24768:A2 I
*I inst_51547:A I
*I inst_41792:A1 I
*I inst_46137:A I
*CAP
1 TAUGATE_14:Z 0.2912
2 net_73100:1 0.3711
3 net_73100:2 0.0512
4 inst_41792:A1 0.1351
5 net_73100:3 0.1146
6 net_73100:4 0.3234
7 inst_75564:B1 0.4610
8 net_73100:5 0.3877
9 inst_8237:A 0.1588
10 net_73100:6 0.2164
11 net_73100:7 0.4372
12 net_73100:8 0.1158
13 inst_76013:A 0.1153
14 net_73100:9 0.2382
15 net_73100:10 0.4109
16 net_73100:11 0.0945
17 net_73100:12 0.2326
18 inst_9124:A 0.0121
19 net_73100:13 0.4392
20 net_73100:14 0.4048
21 net_73100:15 0.0368
22 net_73100:16 0.3283
23 inst_24768:A2 0.2266
24 net_73100:17 0.2966
25 net_73100:18 0.3013
26 net_73100:19 0.0758
27 inst_51547:A 0.0262
28 net_73100:20 0.3805
29 net_73100:21 0.2523
30 net_73100:22 0.0497
31 inst_76744:A 0.4938
32 net_73100:23 0.2454
33 net_73100:24 0.4527
34 net_73100:25 0.2663
35 net_73100:26 0.3641
36 net_73100:27 0.1740
37 inst_46137:A 0.2701
*RES
2 TAUGATE_14:Z net_73100:1 0.0984
3 net_73100:1 net_73100:2 0.0368
4 net_73100:2 inst_41792:A1 0.4376
5 net_73100:1 net_73100:3 0.4832
6 net_73100:3 net_73100:4 0.2776
7 net_73100:4 inst_75564:B1 0.3781
8 net_73100:4 net_73100:5 0.3738
9 net_73100:5 inst_8237:A 0.4556
10 net_73100:3 net_73100:6 0.3810
11 net_73100:6 net_73100:7 0.1100
12 net_73100:7 net_73100:8 0.1662
13 net_73100:8 inst_76013:A 0.3178
14 net_73100:2 net_73100:9 0.2674
15 net_73100:9 net_73100:10 0.2072
16 net_73100:10 net_73100:11 0.0414
17 net_73100:11 net_73100:12 0.2455
18 net_73100:12 inst_9124:A 0.1970
19 net_73100:12 net_73100:13 0.4199
20 net_73100:13 net_73100:14 0.3736
21 net_73100:14 net_73100:15 0.3306
22 net_73100:15 net_73100:16 0.3042
23 net_73100:16 inst_24768:A2 0.1317
24 net_73100:8 net_73100:17 0.3812
25 net_73100:17 net_73100:18 0.0656
26 net_73100:18 net_73100:19 0.1550
27 net_73100:19 inst_51547:A 0.0047
28 net_73100:5 net_73100:20 0.3913
29 net_73100:20 net_73100:21 0.2131
30 net_73100:21 net_73100:22 0.3201
31 net_73100:22 inst_76744:A 0.0320
32 net_73100:15 net_73100:23 0.3351
33 net_73100:23 net_73100:24 0.4105
34 net_73100:24 net_73100:25 0.3004
35 net_73100:25 net_73100:26 0.3665
36 net_73100:26 net_73100:27 0.1341
37 net_73100:27 inst_46137:A 0.0859
*END

*D_NET net_40459 0.5333
*CONN
*I TAUGATE_59:Z O
*I inst_22586:A2 I
*CAP
1 TAUGATE_59:Z 0.3812
2 net_40459:1 0.1227
3 inst_22586:A2 0.0294
*RES
2 TAUGATE_59:Z net_40459:1 0.0059
3 net_40459:1 inst_22586:A2 0.3552
*END

*D_NET TAUNET_51 2.1906
*CONN
*I inst_43263:ZN O
*I TAUGATE_51:A I
*CAP
1 inst_43263:ZN 0.1840
2 TAUNET_51:1 0.3573
3 TAUNET_51:2 0.4559
4 TAUNET_51:3 0.3575
5 TAUNET_51:4 0.1715
6 TAUNET_51:5 0.3050
7 TAUGATE_51:A 0.3594
*RES
2 inst_43263:ZN TAUNET_51:1 0.4902
3 TAUNET_51:1 TAUNET_51:2 0.4716
4 TAUNET_51:2 TAUNET_51:3 0.2112
5 TAUNET_51:3 TAUNET_51:4 0.1762
6 TAUNET_51:4 TAUNET_51:5 0.1166
7 TAUNET_51:5 TAUGATE_51:A 0.1660
*END

*D_NET net_29909 1.7572
*CONN
*I TAUGATE_49:Z O
*I inst_27080:A2 I
*CAP
1 TAUGATE_49:Z 0.2908
2 net_29909:1 0.3308
3 net_29909:2 0.4080
4 net_29909:3 0.4669
5 net_29909:4 0.1932
6 inst_27080:A2 0.0675
*RES
2 TAUGATE_49:Z net_29909:1 0.0053
3 net_29909:1 net_29909:2 0.1459
4 net_29909:2 net_29909:3 0.0437
5 net_29909:3 net_29909:4 0.4598
6 net_29909:4 inst_27080:A2 0.3838
*END

*D_NET net_53349 4.1770
*CONN
*I TAUGATE_53:Z O
*I inst_29364:A1 I
*I inst_13930:A2 I
*CAP
1 TAUGATE_53:Z 0.3263
2 net_53349:1 0.4683
3 net_53349:2 0.1543
4 net_53349:3 0.4873
5 net_53349:4 0.1669
6 net_53349:5 0.4800
7 inst_29364:A1 0.4518
8 net_53349:6 0.3565
9 net_53349:7 0.4074
10 net_53349:8 0.4309
11 inst_13930:A2 0.4474
*RES
2 TAUGATE_53:Z net_53349:1 0.0570
3 net_53349:1 net_53349:2 0.4909
4 net_53349:2 net_53349:3 0.0572
5 net_53349:3 net_53349:4 0.5008
6 net_53349:4 net_53349:5 0.1013
7 net_53349:5 inst_29364:A1 0.2457
8 net_53349:5 net_53349:6 0.2931
9 net_53349:6 net_53349:7 0.2848
10 net_53349:7 net_53349:8 0.2246
11 net_53349:8 inst_13930:A2 0.3320
*END

*D_NET TAUNET_19 1.4186
*CONN
*I inst_1577:ZN O
*I TAUGATE_19:A I
*CAP
1 inst_1577:ZN 0.3663
2 TAUNET_19:1 0.1368
3 TAUNET_19:2 0.4493
4 TAUGATE_19:A 0.4663
*RES
2 inst_1577:ZN TAUNET_19:1 0.2866
3 TAUNET_19:1 TAUNET_19:2 0.1873
4 TAUNET_19:2 TAUGATE_19:A 0.1599
*END

*D_NET TAUNET_34 1.7430
*CONN
*I inst_7187:ZN O
*I TAUGATE_34:A I
*CAP
1 inst_7187:ZN 0.4697
2 TAUNET_34:1 0.0401
3 TAUNET_34:2 0.2861
4 TAUNET_34:3 0.1883
5 TAUNET_34:4 0.3075
6 TAUNET_34:5 0.0604
7 TAUGATE_34:A 0.3908
*RES
2 inst_7187:ZN TAUNET_34:1 0.2921
3 TAUNET_34:1 TAUNET_34:2 0.4162
4 TAUNET_34:2 TAUNET_34:3 0.1285
5 TAUNET_34:3 TAUNET_34:4 0.0491
6 TAUNET_34:4 TAUNET_34:5 0.3511
7 TAUNET_34:5 TAUGATE_34:A 0.2111
*END

*D_NET TAUNET_54 0.4933
*CONN
*I inst_29970:ZN O
*I TAUGATE_54:A I
*CAP
1 inst_29970:ZN 0.1515
2 TAUNET_54:1 0.2707
3 TAUGATE_54:A 0.0711
*RES
2 inst_29970:ZN TAUNET_54:1 0.2365
3 TAUNET_54:1 TAUGATE_54:A 0.0021
*END

*D_NET TAUNET_44 2.3290
*CONN
*I inst_41123:ZN O
*I TAUGATE_44:A I
*CAP
1 inst_41123:ZN 0.3529
2 TAUNET_44:1 0.3648
3 TAUNET_44:2 0.4404
4 TAUNET_44:3 0.3187
5 TAUNET_44:4 0.4272
6 TAUNET_44:5 0.0224
7 TAUGATE_44:A 0.4026
*RES
2 inst_41123:ZN TAUNET_44:1 0.2784
3 TAUNET_44:1 TAUNET_44:2 0.1803
4 TAUNET_44:2 TAUNET_44:3 0.0882
5 TAUNET_44:3 TAUNET_44:4 0.2924
6 TAUNET_44:4 TAUNET_44:5 0.4780
7 TAUNET_44:5 TAUGATE_44:A 0.3510
*END

*D_NET net_29422 5.4099
*CONN
*I TAUGATE_25:Z O
*I inst_36269:A1 I
*I inst_27114:A2 I
*I inst_23348:A3 I
*I inst_52294:A I
*CAP
1 TAUGATE_25:Z 0.2614
2 net_29422:1 0.2582
3 net_29422:2 0.4484
4 inst_36269:A1 0.0762
5 net_29422:3 0.4671
6 net_29422:4 0.2972
7 net_29422:5 0.3936
8 net_29422:6 0.4880
9 net_29422:7 0.4169
10 inst_27114:A2 0.3167
11 net_29422:8 0.0048
12 net_29422:9 0.3126
13 inst_23348:A3 0.0195
14 net_29422:10 0.4038
15 net_29422:11 0.1954
16 net_29422:12 0.0063
17 net_29422:13 0.4904
18 net_29422:14 0.0915
19 inst_52294:A 0.4619
*RES
2 TAUGATE_25:Z net_29422:1 0.1986
3 net_29422:1 net_29422:2 0.3922
4 net_29422:2 inst_36269:A1 0.3950
5 net_29422:2 net_29422:3 0.3376
6 net_29422:3 net_29422:4 0.1073
7 net_29422:4 net_29422:5 0.3579
8 net_29422:5 net_29422:6 0.1300
9 net_29422:6 net_29422:7 0.3795
10 net_29422:7 inst_27114:A2 0.2362
11 net_29422:5 net_29422:8 0.0541
12 net_29422:8 net_29422:9 0.3700
13 net_29422:9 inst_23348:A3 0.3260
14 net_29422:7 net_29422:10 0.1065
15 net_29422:10 net_29422:11 0.1990
16 net_29422:11 net_29422:12 0.2576
17 net_29422:12 net_29422:13 0.0690
18 net_29422:13 net_29422:14 0.2231
19 net_29422:14 inst_52294:A 0.2934
*END

*D_NET TAUNET_43 0.5565
*CONN
*I inst_56513:ZN O
*I TAUGATE_43:A I
*CAP
1 inst_56513:ZN 0.0281
2 TAUNET_43:1 0.2539
3 TAUNET_43:2 0.0765
4 TAUGATE_43:A 0.1980
*RES
2 inst_56513:ZN TAUNET_43:1 0.3226
3 TAUNET_43:1 TAUNET_43:2 0.1282
4 TAUNET_43:2 TAUGATE_43:A 0.2766
*END

*D_NET TAUNET_56 2.4916
*CONN
*I inst_22461:ZN O
*I TAUGATE_56:A I
*CAP
1 inst_22461:ZN 0.4267
2 TAUNET_56:1 0.3295
3 TAUNET_56:2 0.4724
4 TAUNET_56:3 0.4631
5 TAUNET_56:4 0.0407
6 TAUNET_56:5 0.4130
7 TAUGATE_56:A 0.3462
*RES
2 inst_22461:ZN TAUNET_56:1 0.0714
3 TAUNET_56:1 TAUNET_56:2 0.2110
4 TAUNET_56:2 TAUNET_56:3 0.2588
5 TAUNET_56:3 TAUNET_56:4 0.0339
6 TAUNET_56:4 TAUNET_56:5 0.0519
7 TAUNET_56:5 TAUGATE_56:A 0.4874
*END

*D_NET TAUNET_55 1.1229
*CONN
*I inst_17863:ZN O
*I TAUGATE_55:A I
*CAP
1 inst_17863:ZN 0.2489
2 TAUNET_55:1 0.0346
3 TAUNET_55:2 0.4333
4 TAUNET_55:3 0.0645
5 TAUGATE_55:A 0.3416
*RES
2 inst_17863:ZN TAUNET_55:1 0.4099
3 TAUNET_55:1 TAUNET_55:2 0.1540
4 TAUNET_55:2 TAUNET_55:3 0.0325
5 TAUNET_55:3 TAUGATE_55:A 0.0924
*END

*D_NET TAUNET_11 1.2932
*CONN
*I inst_39623:ZN O
*I TAUGATE_11:A I
*CAP
1 inst_39623:ZN 0.1516
2 TAUNET_11:1 0.4228
3 TAUNET_11:2 0.1417
4 TAUNET_11:3 0.3754
5 TAUGATE_11:A 0.2016
*RES
2 inst_39623:ZN TAUNET_11:1 0.0068
3 TAUNET_11:1 TAUNET_11:2 0.2001
4 TAUNET_11:2 TAUNET_11:3 0.4220
5 TAUNET_11:3 TAUGATE_11:A 0.4926
*END

*D_NET TAUNET_33 1.4952
*CONN
*I inst_60726:ZN O
*I TAUGATE_33:A I
*CAP
1 inst_60726:ZN 0.3810
2 TAUNET_33:1 0.2042
3 TAUNET_33:2 0.2030
4 TAUNET_33:3 0.2656
5 TAUGATE_33:A 0.4413
*RES
2 inst_60726:ZN TAUNET_33:1 0.1336
3 TAUNET_33:1 TAUNET_33:2 0.4042
4 TAUNET_33:2 TAUNET_33:3 0.0451
5 TAUNET_33:3 TAUGATE_33:A 0.2391
*END

*D_NET TAUNET_22 0.9045
*CONN
*I inst_11802:ZN O
*I TAUGATE_22:A I
*CAP
1 inst_11802:ZN 0.4146
2 TAUNET_22:1 0.2654
3 TAUGATE_22:A 0.2245
*RES
2 inst_11802:ZN TAUNET_22:1 0.4797
3 TAUNET_22:1 TAUGATE_22:A 0.0551
*END

*D_NET net_62495 2.7068
*CONN
*I TAUGATE_38:Z O
*I inst_59219:A I
*I inst_4052:A2 I
*I inst_20864:A1 I
*CAP
1 TAUGATE_38:Z 0.0973
2 net_62495:1 0.1903
3 net_62495:2 0.2143
4 net_62495:3 0.0701
5 net_62495:4 0.2421
6 net_62495:5 0.4634
7 inst_4052:A2 0.2497
8 net_62495:6 0.1341
9 inst_59219:A 0.4054
10 net_62495:7 0.0224
11 net_62495:8 0.3933
12 inst_20864:A1 0.2244
*RES
2 TAUGATE_38:Z net_62495:1 0.2766
3 net_62495:1 net_62495:2 0.3086
4 net_62495:2 net_62495:3 0.2353
5 net_62495:3 net_62495:4 0.4838
6 net_62495:4 net_62495:5 0.0722
7 net_62495:5 inst_4052:A2 0.3539
8 net_62495:4 net_62495:6 0.3681
9 net_62495:6 inst_59219:A 0.4419
10 net_62495:2 net_62495:7 0.4154
11 net_62495:7 net_62495:8 0.1374
12 net_62495:8 inst_20864:A1 0.1713
*END

*D_NET net_72702 1.8689
*CONN
*I TAUGATE_40:Z O
*I inst_66455:D I
*CAP
1 TAUGATE_40:Z 0.3119
2 net_72702:1 0.3583
3 net_72702:2 0.0251
4 net_72702:3 0.0071
5 net_72702:4 0.2242
6 net_72702:5 0.4834