*SPEF "IEEE 1481-1998"
*DESIGN "changes"
*DATE "Tue Dec 02 19:29:03 2014"
*VENDOR "TAU 2015 Contest"
*PROGRAM "Benchmark Parasitic Generator"
*VERSION "0.0"
*DESIGN_FLOW "NETLIST_TYPE_VERILOG"
*DIVIDER /
*DELIMITER :
*BUS_DELIMITER [ ]
*T_UNIT 1 PS
*C_UNIT 1 FF
*R_UNIT 1 KOHM
*L_UNIT 1 UH

*D_NET net_45697 15.2473
*CONN
*I inst_49010:ZN O
*I inst_31348:A1 I
*I inst_31528:A1 I
*I inst_30810:A1 I
*I inst_31513:A1 I
*I inst_30830:A1 I
*I inst_31751:A1 I
*I inst_49009:A I
*I inst_31605:A1 I
*I inst_31421:A1 I
*I inst_31697:A1 I
*I inst_44765:A I
*I inst_14562:A1 I
*CAP
1 inst_49010:ZN 0.2611
2 net_45697:1 0.4098
3 net_45697:2 0.5009
4 net_45697:3 0.2843
5 inst_30830:A1 0.2878
6 net_45697:4 0.4685
7 net_45697:5 0.3070
8 net_45697:6 0.3583
9 inst_31528:A1 0.1395
10 net_45697:7 0.4644
11 net_45697:8 0.4559
12 net_45697:9 0.4050
13 net_45697:10 0.0154
14 inst_30810:A1 0.1670
15 net_45697:11 0.2909
16 net_45697:12 0.3706
17 inst_31513:A1 0.0740
18 net_45697:13 0.0292
19 net_45697:14 0.2926
20 inst_31348:A1 0.4507
21 net_45697:15 0.3464
22 net_45697:16 0.0305
23 net_45697:17 0.2383
24 net_45697:18 0.4020
25 inst_31751:A1 0.2529
26 net_45697:19 0.1922
27 net_45697:20 0.2805
28 net_45697:21 0.1322
29 inst_49009:A 0.1905
30 net_45697:22 0.1955
31 net_45697:23 0.1868
32 net_45697:24 0.4889
33 inst_31605:A1 0.0703
34 net_45697:25 0.0717
35 net_45697:26 0.3990
36 inst_31421:A1 0.4035
37 net_45697:27 0.3591
38 net_45697:28 0.2780
39 net_45697:29 0.2022
40 net_45697:30 0.1593
41 net_45697:31 0.4382
42 inst_31697:A1 0.3498
43 net_45697:32 0.3789
44 net_45697:33 0.3545
45 net_45697:34 0.1033
46 net_45697:35 0.4316
47 net_45697:36 0.1782
48 inst_44765:A 0.4734
49 net_45697:37 0.2434
50 net_45697:38 0.3726
51 net_45697:39 0.2980
52 net_45697:40 0.2454
53 inst_14562:A1 0.4670
*RES
2 inst_49010:ZN net_45697:1 0.1659
3 net_45697:1 net_45697:2 0.2742
4 net_45697:2 net_45697:3 0.3494
5 net_45697:3 inst_30830:A1 0.1485
6 net_45697:3 net_45697:4 0.0646
7 net_45697:4 net_45697:5 0.0794
8 net_45697:5 net_45697:6 0.2161
9 net_45697:6 inst_31528:A1 0.1614
10 net_45697:4 net_45697:7 0.1555
11 net_45697:7 net_45697:8 0.2440
12 net_45697:8 net_45697:9 0.0332
13 net_45697:9 net_45697:10 0.0406
14 net_45697:10 inst_30810:A1 0.2732
15 net_45697:3 net_45697:11 0.4871
16 net_45697:11 net_45697:12 0.4951
17 net_45697:12 inst_31513:A1 0.4125
18 net_45697:1 net_45697:13 0.3356
19 net_45697:13 net_45697:14 0.3995
20 net_45697:14 inst_31348:A1 0.3845
21 net_45697:14 net_45697:15 0.2665
22 net_45697:15 net_45697:16 0.4354
23 net_45697:16 net_45697:17 0.1977
24 net_45697:17 net_45697:18 0.0788
25 net_45697:18 inst_31751:A1 0.3276
26 net_45697:3 net_45697:19 0.4017
27 net_45697:19 net_45697:20 0.4680
28 net_45697:20 net_45697:21 0.2976
29 net_45697:21 inst_49009:A 0.2331
30 net_45697:17 net_45697:22 0.3298
31 net_45697:22 net_45697:23 0.4131
32 net_45697:23 net_45697:24 0.3310
33 net_45697:24 inst_31605:A1 0.2621
34 net_45697:24 net_45697:25 0.0219
35 net_45697:25 net_45697:26 0.0830
36 net_45697:26 inst_31421:A1 0.4539
37 net_45697:17 net_45697:27 0.4055
38 net_45697:27 net_45697:28 0.4519
39 net_45697:28 net_45697:29 0.4658
40 net_45697:29 net_45697:30 0.3690
41 net_45697:30 net_45697:31 0.4019
42 net_45697:31 inst_31697:A1 0.0632
43 net_45697:15 net_45697:32 0.0376
44 net_45697:32 net_45697:33 0.0972
45 net_45697:33 net_45697:34 0.3594
46 net_45697:34 net_45697:35 0.0525
47 net_45697:35 net_45697:36 0.3248
48 net_45697:36 inst_44765:A 0.2597
49 net_45697:10 net_45697:37 0.1921
50 net_45697:37 net_45697:38 0.1376
51 net_45697:38 net_45697:39 0.4443
52 net_45697:39 net_45697:40 0.1288
53 net_45697:40 inst_14562:A1 0.3022
*END

*D_NET net_58741 1.8873
*CONN
*I inst_46444:ZN O
*I inst_11870:A2 I
*CAP
1 inst_46444:ZN 0.0668
2 net_58741:1 0.4131
3 net_58741:2 0.4004
4 net_58741:3 0.4814
5 net_58741:4 0.1341
6 inst_11870:A2 0.3915
*RES
2 inst_46444:ZN net_58741:1 0.0282
3 net_58741:1 net_58741:2 0.3089
4 net_58741:2 net_58741:3 0.0253
5 net_58741:3 net_58741:4 0.3105
6 net_58741:4 inst_11870:A2 0.1881
*END

*D_NET net_9905 3.8609
*CONN
*I inst_56962:ZN O
*I inst_78594:A1 I
*I inst_42487:A1 I
*I inst_13365:A1 I
*I inst_44193:A2 I
*I inst_13391:A1 I
*CAP
1 inst_56962:ZN 0.1592
2 net_9905:1 0.2761
3 net_9905:2 0.3643
4 net_9905:3 0.2288
5 net_9905:4 0.0666
6 inst_13365:A1 0.3854
7 net_9905:5 0.4921
8 net_9905:6 0.1648
9 net_9905:7 0.1855
10 inst_42487:A1 0.0112
11 net_9905:8 0.3290
12 net_9905:9 0.1620
13 inst_78594:A1 0.0029
14 net_9905:10 0.1891
15 net_9905:11 0.0464
16 inst_44193:A2 0.0364
17 net_9905:12 0.1748
18 net_9905:13 0.4787
19 inst_13391:A1 0.1076
*RES
2 inst_56962:ZN net_9905:1 0.3580
3 net_9905:1 net_9905:2 0.3774
4 net_9905:2 net_9905:3 0.2731
5 net_9905:3 net_9905:4 0.1525
6 net_9905:4 inst_13365:A1 0.0518
7 net_9905:3 net_9905:5 0.3530
8 net_9905:5 net_9905:6 0.1128
9 net_9905:6 net_9905:7 0.2239
10 net_9905:7 inst_42487:A1 0.0917
11 net_9905:7 net_9905:8 0.2883
12 net_9905:8 net_9905:9 0.1903
13 net_9905:9 inst_78594:A1 0.4381
14 net_9905:2 net_9905:10 0.0279
15 net_9905:10 net_9905:11 0.4104
16 net_9905:11 inst_44193:A2 0.0649
17 net_9905:1 net_9905:12 0.4606
18 net_9905:12 net_9905:13 0.3388
19 net_9905:13 inst_13391:A1 0.4657
*END

*D_NET net_69875 3.9056
*CONN
*I TAUGATE_1358:Z O
*I inst_5800:B2 I
*I inst_29624:A1 I
*I inst_10640:A I
*CAP
1 TAUGATE_1358:Z 0.2471
2 net_69875:1 0.0580
3 inst_10640:A 0.3736
4 net_69875:2 0.3877
5 net_69875:3 0.3882
6 net_69875:4 0.4950
7 net_69875:5 0.0413
8 net_69875:6 0.4651
9 inst_29624:A1 0.4065
10 net_69875:7 0.2195
11 net_69875:8 0.1533
12 net_69875:9 0.4091
13 inst_5800:B2 0.2613
*RES
2 TAUGATE_1358:Z net_69875:1 0.0395
3 net_69875:1 inst_10640:A 0.3644
4 net_69875:1 net_69875:2 0.3164
5 net_69875:2 net_69875:3 0.3513
6 net_69875:3 net_69875:4 0.1165
7 net_69875:4 net_69875:5 0.0986
8 net_69875:5 net_69875:6 0.2243
9 net_69875:6 inst_29624:A1 0.1286
10 net_69875:6 net_69875:7 0.3587
11 net_69875:7 net_69875:8 0.1869
12 net_69875:8 net_69875:9 0.4974
13 net_69875:9 inst_5800:B2 0.3047
*END

*D_NET net_77782 3.1876
*CONN
*I inst_68749:QN O
*I inst_40177:A1 I
*I inst_55213:A I
*I inst_69876:D I
*CAP
1 inst_68749:QN 0.4969
2 net_77782:1 0.1733
3 net_77782:2 0.1014
4 inst_40177:A1 0.0283
5 net_77782:3 0.2046
6 net_77782:4 0.3404
7 net_77782:5 0.1317
8 net_77782:6 0.3617
9 inst_55213:A 0.0856
10 net_77782:7 0.1079
11 net_77782:8 0.3323
12 net_77782:9 0.2907
13 net_77782:10 0.0362
14 inst_69876:D 0.4966
*RES
2 inst_68749:QN net_77782:1 0.2763
3 net_77782:1 net_77782:2 0.2945
4 net_77782:2 inst_40177:A1 0.3177
5 net_77782:1 net_77782:3 0.3629
6 net_77782:3 net_77782:4 0.2821
7 net_77782:4 net_77782:5 0.3900
8 net_77782:5 net_77782:6 0.0557
9 net_77782:6 inst_55213:A 0.1253
10 net_77782:3 net_77782:7 0.4101
11 net_77782:7 net_77782:8 0.2702
12 net_77782:8 net_77782:9 0.2135
13 net_77782:9 net_77782:10 0.0419
14 net_77782:10 inst_69876:D 0.2773
*END

