*SPEF "IEEE 1481-1998"
*DESIGN "changes"
*DATE "Tue Dec 02 19:28:45 2014"
*VENDOR "TAU 2015 Contest"
*PROGRAM "Benchmark Parasitic Generator"
*VERSION "0.0"
*DESIGN_FLOW "NETLIST_TYPE_VERILOG"
*DIVIDER /
*DELIMITER :
*BUS_DELIMITER [ ]
*T_UNIT 1 PS
*C_UNIT 1 FF
*R_UNIT 1 KOHM
*L_UNIT 1 UH

*D_NET TAUNET_4 1.7439
*CONN
*I inst_58821:ZN O
*I TAUGATE_4:A I
*CAP
1 inst_58821:ZN 0.2611
2 TAUNET_4:1 0.4098
3 TAUNET_4:2 0.5009
4 TAUNET_4:3 0.2843
5 TAUGATE_4:A 0.2878
*RES
2 inst_58821:ZN TAUNET_4:1 0.1659
3 TAUNET_4:1 TAUNET_4:2 0.2742
4 TAUNET_4:2 TAUNET_4:3 0.3494
5 TAUNET_4:3 TAUGATE_4:A 0.1485
*END

*D_NET TAUNET_2 1.3760
*CONN
*I inst_75995:ZN O
*I TAUGATE_2:A I
*CAP
1 inst_75995:ZN 0.2110
2 TAUNET_2:1 0.3070
3 TAUNET_2:2 0.3583
4 TAUNET_2:3 0.1395
5 TAUNET_2:4 0.0646
6 TAUNET_2:5 0.0794
7 TAUGATE_2:A 0.2161
*RES
2 inst_75995:ZN TAUNET_2:1 0.1614
3 TAUNET_2:1 TAUNET_2:2 0.3312
4 TAUNET_2:2 TAUNET_2:3 0.3755
5 TAUNET_2:3 TAUNET_2:4 0.4644
6 TAUNET_2:4 TAUNET_2:5 0.4559
7 TAUNET_2:5 TAUGATE_2:A 0.4050
*END

*D_NET net_30931 4.8652
*CONN
*I TAUGATE_3:Z O
*I inst_16140:A1 I
*I inst_35639:A1 I
*I inst_23220:A3 I
*I inst_25821:A3 I
*CAP
1 TAUGATE_3:Z 0.1670
2 net_30931:1 0.2440
3 net_30931:2 0.0332
4 inst_16140:A1 0.0406
5 net_30931:3 0.3706
6 net_30931:4 0.0740
7 net_30931:5 0.4871
8 inst_35639:A1 0.4951
9 net_30931:6 0.3356
10 net_30931:7 0.3995
11 net_30931:8 0.3845
12 net_30931:9 0.4708
13 net_30931:10 0.3056
14 inst_23220:A3 0.3464
15 net_30931:11 0.3276
16 inst_25821:A3 0.3833
*RES
2 TAUGATE_3:Z net_30931:1 0.2732
3 net_30931:1 net_30931:2 0.0073
4 net_30931:2 inst_16140:A1 0.1308
5 net_30931:1 net_30931:3 0.4125
6 net_30931:3 net_30931:4 0.0565
7 net_30931:4 net_30931:5 0.1285
8 net_30931:5 inst_35639:A1 0.0292
9 net_30931:3 net_30931:6 0.0305
10 net_30931:6 net_30931:7 0.2383
11 net_30931:7 net_30931:8 0.4020
12 net_30931:8 net_30931:9 0.2529
13 net_30931:9 net_30931:10 0.2665
14 net_30931:10 inst_23220:A3 0.4354
15 net_30931:4 net_30931:11 0.3292
16 net_30931:11 inst_25821:A3 0.0716
*END

*D_NET net_24921 1.3846
*CONN
*I TAUGATE_2:Z O
*I inst_20255:A3 I
*CAP
1 TAUGATE_2:Z 0.1922
2 net_24921:1 0.1322
3 net_24921:2 0.1905
4 net_24921:3 0.4017
5 inst_20255:A3 0.4680
*RES
2 TAUGATE_2:Z net_24921:1 0.2976
3 net_24921:1 net_24921:2 0.2331
4 net_24921:2 net_24921:3 0.2927
5 net_24921:3 inst_20255:A3 0.3943
*END

*D_NET TAUNET_3 1.0845
*CONN
*I inst_51749:ZN O
*I TAUGATE_3:A I
*CAP
1 inst_51749:ZN 0.1955
2 TAUNET_3:1 0.4889
3 TAUNET_3:2 0.0703
4 TAUGATE_3:A 0.3298
*RES
2 inst_51749:ZN TAUNET_3:1 0.4131
3 TAUNET_3:1 TAUNET_3:2 0.3310
4 TAUNET_3:2 TAUGATE_3:A 0.2621
*END

*D_NET net_70406 0.9833
*CONN
*I TAUGATE_4:Z O
*I inst_8890:B2 I
*CAP
1 TAUGATE_4:Z 0.1808
2 net_70406:1 0.3990
3 inst_8890:B2 0.4035
*RES
2 TAUGATE_4:Z net_70406:1 0.0219
3 net_70406:1 inst_8890:B2 0.0830
*END

