*SPEF "IEEE 1481-1998"
*DESIGN "changes"
*DATE "Tue Dec 02 19:29:04 2014"
*VENDOR "TAU 2015 Contest"
*PROGRAM "Benchmark Parasitic Generator"
*VERSION "0.0"
*DESIGN_FLOW "NETLIST_TYPE_VERILOG"
*DIVIDER /
*DELIMITER :
*BUS_DELIMITER [ ]
*T_UNIT 1 PS
*C_UNIT 1 FF
*R_UNIT 1 KOHM
*L_UNIT 1 UH

*D_NET net_79038 18.1049
*CONN
*I inst_567:ZN O
*I inst_8119:A I
*I inst_77788:A2 I
*I inst_73705:B1 I
*I inst_10363:A I
*I inst_73146:A2 I
*I inst_77787:A1 I
*I inst_37416:A1 I
*I inst_8092:B1 I
*I inst_75949:A I
*I inst_16721:A1 I
*I inst_37441:A1 I
*I inst_37411:A1 I
*I inst_77897:A2 I
*I inst_14092:A1 I
*I inst_8128:A I
*I inst_45544:A I
*CAP
1 inst_567:ZN 0.2611
2 net_79038:1 0.4098
3 net_79038:2 0.5009
4 net_79038:3 0.2843
5 inst_37416:A1 0.2878
6 net_79038:4 0.4685
7 net_79038:5 0.3070
8 net_79038:6 0.3583
9 inst_77788:A2 0.1395
10 net_79038:7 0.4644
11 net_79038:8 0.4559
12 net_79038:9 0.4050
13 net_79038:10 0.0154
14 inst_73705:B1 0.1670
15 net_79038:11 0.2909
16 net_79038:12 0.3706
17 inst_10363:A 0.0740
18 net_79038:13 0.0292
19 net_79038:14 0.2926
20 inst_73146:A2 0.4507
21 net_79038:15 0.3464
22 net_79038:16 0.0305
23 net_79038:17 0.2383
24 net_79038:18 0.4020
25 inst_77787:A1 0.2529
26 net_79038:19 0.1922
27 net_79038:20 0.2805
28 net_79038:21 0.1322
29 inst_8119:A 0.1905
30 net_79038:22 0.1955
31 net_79038:23 0.1868
32 net_79038:24 0.4889
33 inst_8092:B1 0.0703
34 net_79038:25 0.0717
35 net_79038:26 0.3990
36 inst_75949:A 0.4035
37 net_79038:27 0.3591
38 net_79038:28 0.2780
39 net_79038:29 0.2022
40 net_79038:30 0.1593
41 net_79038:31 0.4382
42 inst_16721:A1 0.3498
43 net_79038:32 0.3789
44 net_79038:33 0.3545
45 net_79038:34 0.1033
46 net_79038:35 0.4316
47 net_79038:36 0.1782
48 inst_37441:A1 0.4734
49 net_79038:37 0.2434
50 net_79038:38 0.3726
51 net_79038:39 0.2980
52 net_79038:40 0.2454
53 inst_37411:A1 0.4670
54 net_79038:41 0.3699
55 inst_77897:A2 0.4131
56 net_79038:42 0.0282
57 net_79038:43 0.3089
58 net_79038:44 0.0253
59 net_79038:45 0.3105
60 inst_14092:A1 0.1881
61 net_79038:46 0.3854
62 inst_8128:A 0.3580
63 net_79038:47 0.2548
64 inst_45544:A 0.2154
*RES
2 inst_567:ZN net_79038:1 0.1659
3 net_79038:1 net_79038:2 0.2742
4 net_79038:2 net_79038:3 0.3494
5 net_79038:3 inst_37416:A1 0.1485
6 net_79038:3 net_79038:4 0.0646
7 net_79038:4 net_79038:5 0.0794
8 net_79038:5 net_79038:6 0.2161
9 net_79038:6 inst_77788:A2 0.1614
10 net_79038:4 net_79038:7 0.1555
11 net_79038:7 net_79038:8 0.2440
12 net_79038:8 net_79038:9 0.0332
13 net_79038:9 net_79038:10 0.0406
14 net_79038:10 inst_73705:B1 0.2732
15 net_79038:3 net_79038:11 0.4871
16 net_79038:11 net_79038:12 0.4951
17 net_79038:12 inst_10363:A 0.4125
18 net_79038:1 net_79038:13 0.3356
19 net_79038:13 net_79038:14 0.3995
20 net_79038:14 inst_73146:A2 0.3845
21 net_79038:14 net_79038:15 0.2665
22 net_79038:15 net_79038:16 0.4354
23 net_79038:16 net_79038:17 0.1977
24 net_79038:17 net_79038:18 0.0788
25 net_79038:18 inst_77787:A1 0.3276
26 net_79038:3 net_79038:19 0.4017
27 net_79038:19 net_79038:20 0.4680
28 net_79038:20 net_79038:21 0.2976
29 net_79038:21 inst_8119:A 0.2331
30 net_79038:17 net_79038:22 0.3298
31 net_79038:22 net_79038:23 0.4131
32 net_79038:23 net_79038:24 0.3310
33 net_79038:24 inst_8092:B1 0.2621
34 net_79038:24 net_79038:25 0.0219
35 net_79038:25 net_79038:26 0.0830
36 net_79038:26 inst_75949:A 0.4539
37 net_79038:17 net_79038:27 0.4055
38 net_79038:27 net_79038:28 0.4519
39 net_79038:28 net_79038:29 0.4658
40 net_79038:29 net_79038:30 0.3690
41 net_79038:30 net_79038:31 0.4019
42 net_79038:31 inst_16721:A1 0.0632
43 net_79038:15 net_79038:32 0.0376
44 net_79038:32 net_79038:33 0.0972
45 net_79038:33 net_79038:34 0.3594
46 net_79038:34 net_79038:35 0.0525
47 net_79038:35 net_79038:36 0.3248
48 net_79038:36 inst_37441:A1 0.2597
49 net_79038:10 net_79038:37 0.1921
50 net_79038:37 net_79038:38 0.1376
51 net_79038:38 net_79038:39 0.4443
52 net_79038:39 net_79038:40 0.1288
53 net_79038:40 inst_37411:A1 0.3022
54 net_79038:11 net_79038:41 0.4004
55 net_79038:41 inst_77897:A2 0.4814
56 net_79038:11 net_79038:42 0.2034
57 net_79038:42 net_79038:43 0.1592
58 net_79038:43 net_79038:44 0.3147
59 net_79038:44 net_79038:45 0.2761
60 net_79038:45 inst_14092:A1 0.3643
61 net_79038:21 net_79038:46 0.3774
62 net_79038:46 inst_8128:A 0.2731
63 net_79038:14 net_79038:47 0.4921
64 net_79038:47 inst_45544:A 0.1648
*END

*D_NET net_77900 3.1034
*CONN
*I TAUGATE_2439:Z O
*I inst_70074:D I
*I inst_2724:A1 I
*I inst_30601:A1 I
*I inst_55779:A I
*CAP
1 TAUGATE_2439:Z 0.0112
2 net_77900:1 0.1128
3 net_77900:2 0.2239
4 net_77900:3 0.0917
5 net_77900:4 0.4230
6 inst_2724:A1 0.1494
7 net_77900:5 0.1392
8 inst_70074:D 0.1891
9 net_77900:6 0.0510
10 inst_30601:A1 0.1600
11 net_77900:7 0.3388
12 net_77900:8 0.4657
13 net_77900:9 0.3595
14 net_77900:10 0.2471
15 net_77900:11 0.0832
16 inst_55779:A 0.0580
*RES
2 TAUGATE_2439:Z net_77900:1 0.3290
3 net_77900:1 net_77900:2 0.1620
4 net_77900:2 net_77900:3 0.0029
5 net_77900:3 net_77900:4 0.2883
6 net_77900:4 inst_2724:A1 0.1903
7 net_77900:4 net_77900:5 0.0464
8 net_77900:5 inst_70074:D 0.0364
9 net_77900:5 net_77900:6 0.1748
10 net_77900:6 inst_30601:A1 0.4787
11 net_77900:2 net_77900:7 0.3736
12 net_77900:7 net_77900:8 0.0395
13 net_77900:8 net_77900:9 0.3644
14 net_77900:9 net_77900:10 0.0829
15 net_77900:10 net_77900:11 0.1977
16 net_77900:11 inst_55779:A 0.4694
*END

*D_NET net_40822 3.8144
*CONN
*I inst_15325:ZN O
*I inst_59777:A I
*I inst_15299:A2 I
*CAP
1 inst_15325:ZN 0.3882
2 net_40822:1 0.0413
3 net_40822:2 0.4651
4 net_40822:3 0.4065
5 net_40822:4 0.3164
6 net_40822:5 0.3513
7 inst_15299:A2 0.1165
8 net_40822:6 0.2613
9 net_40822:7 0.3587
10 net_40822:8 0.1869
11 net_40822:9 0.4974
12 net_40822:10 0.3047
13 inst_59777:A 0.1200
*RES
2 inst_15325:ZN net_40822:1 0.0986
3 net_40822:1 net_40822:2 0.2243
4 net_40822:2 net_40822:3 0.1286
5 net_40822:3 net_40822:4 0.4269
6 net_40822:4 net_40822:5 0.2482
7 net_40822:5 inst_15299:A2 0.2195
8 net_40822:2 net_40822:6 0.4969
9 net_40822:6 net_40822:7 0.1210
10 net_40822:7 net_40822:8 0.1733
11 net_40822:8 net_40822:9 0.1014
12 net_40822:9 net_40822:10 0.0283
13 net_40822:10 inst_59777:A 0.2763
*END

*D_NET net_18614 1.3334
*CONN
*I inst_54856:ZN O
*I inst_39969:A2 I
*CAP
1 inst_54856:ZN 0.3177
2 net_18614:1 0.3390
3 net_18614:2 0.2046
4 net_18614:3 0.3404
5 inst_39969:A2 0.1317
*RES
2 inst_54856:ZN net_18614:1 0.3617
3 net_18614:1 net_18614:2 0.0856
4 net_18614:2 net_18614:3 0.3629
5 net_18614:3 inst_39969:A2 0.2821
*END

*D_NET net_67087 6.5405
*CONN
*I inst_54996:ZN O
*I inst_46564:A I
*I inst_39496:A1 I
*I inst_23999:A2 I
*I inst_13185:A1 I
*I inst_27753:A1 I
*I inst_40099:A2 I
*CAP
1 inst_54996:ZN 0.0557
2 net_67087:1 0.2716
3 net_67087:2 0.3735
4 inst_27753:A1 0.1079
5 net_67087:3 0.0419
6 net_67087:4 0.2773
7 net_67087:5 0.0903
8 inst_39496:A1 0.0485
9 net_67087:6 0.4228
10 net_67087:7 0.2443
11 net_67087:8 0.2458
12 net_67087:9 0.3734
13 inst_23999:A2 0.1567
14 net_67087:10 0.1981
15 net_67087:11 0.3275
16 net_67087:12 0.0169
17 net_67087:13 0.4026
18 net_67087:14 0.4684
19 inst_13185:A1 0.2490
20 net_67087:15 0.0209
21 net_67087:16 0.4380
22 inst_46564:A 0.4130
23 net_67087:17 0.4464
24 net_67087:18 0.2438
25 net_67087:19 0.2969
26 inst_40099:A2 0.3091
*RES
2 inst_54996:ZN net_67087:1 0.3323
3 net_67087:1 net_67087:2 0.2907
4 net_67087:2 inst_27753:A1 0.0362
5 net_67087:2 net_67087:3 0.4602
6 net_67087:3 net_67087:4 0.4262
7 net_67087:4 net_67087:5 0.2009
8 net_67087:5 inst_39496:A1 0.3114
9 net_67087:3 net_67087:6 0.1247
10 net_67087:6 net_67087:7 0.2439
11 net_67087:7 net_67087:8 0.2588
12 net_67087:8 net_67087:9 0.4474
13 net_67087:9 inst_23999:A2 0.3528
14 net_67087:1 net_67087:10 0.0579
15 net_67087:10 net_67087:11 0.0423
16 net_67087:11 net_67087:12 0.2861
17 net_67087:12 net_67087:13 0.4278
18 net_67087:13 net_67087:14 0.3875
19 net_67087:14 inst_13185:A1 0.4796
20 net_67087:11 net_67087:15 0.4990
21 net_67087:15 net_67087:16 0.2134
22 net_67087:16 inst_46564:A 0.1115
23 net_67087:13 net_67087:17 0.5006
24 net_67087:17 net_67087:18 0.2264
25 net_67087:18 net_67087:19 0.3973
26 net_67087:19 inst_40099:A2 0.2044
*END

*D_NET net_54008 1.5866
*CONN
*I inst_6325:ZN O
*I inst_29188:A2 I
*CAP
1 inst_6325:ZN 0.3886
2 net_54008:1 0.2468
3 net_54008:2 0.4002
4 net_54008:3 0.3652
5 inst_29188:A2 0.1857
*RES
2 inst_6325:ZN net_54008:1 0.0562
3 net_54008:1 net_54008:2 0.0882
4 net_54008:2 net_54008:3 0.4386
5 net_54008:3 inst_29188:A2 0.2715
*END

*D_NET net_20732 5.7229
*CONN
*I inst_27603:ZN O
*I inst_78453:A2 I
*I inst_17378:A1 I
*I inst_39220:A2 I
*I inst_31470:A2 I
*I inst_27601:A1 I
*I inst_14614:A2 I
*CAP
1 inst_27603:ZN 0.4145
2 net_20732:1 0.1130
3 net_20732:2 0.1026
4 inst_78453:A2 0.1939
5 net_20732:3 0.1138
6 net_20732:4 0.4033
7 net_20732:5 0.3663
8 net_20732:6 0.2540
9 net_20732:7 0.0526
10 inst_17378:A1 0.2388
11 net_20732:8 0.4935
12 inst_39220:A2 0.2412
13 net_20732:9 0.0266
14 inst_31470:A2 0.0274
15 net_20732:10 0.3985
16 net_20732:11 0.0145
17 net_20732:12 0.0725
18 net_20732:13 0.4492
19 net_20732:14 0.3124
20 inst_27601:A1 0.3685
21 net_20732:15 0.4634
22 net_20732:16 0.2869
23 net_20732:17 0.1646
24 net_20732:18 0.1182
25 inst_14614:A2 0.0327
*RES
2 inst_27603:ZN net_20732:1 0.1095
3 net_20732:1 net_20732:2 0.0212
4 net_20732:2 inst_78453:A2 0.1417
5 net_20732:1 net_20732:3 0.1787
6 net_20732:3 net_20732:4 0.3603
7 net_20732:4 net_20732:5 0.0603
8 net_20732:5 net_20732:6 0.0863
9 net_20732:6 net_20732:7 0.3102
10 net_20732:7 inst_17378:A1 0.1239
11 net_20732:3 net_20732:8 0.3995
12 net_20732:8 inst_39220:A2 0.4441
13 net_20732:8 net_20732:9 0.4218
14 net_20732:9 inst_31470:A2 0.2061
15 net_20732:4 net_20732:10 0.4317
16 net_20732:10 net_20732:11 0.1801
17 net_20732:11 net_20732:12 0.2826
18 net_20732:12 net_20732:13 0.3420
19 net_20732:13 net_20732:14 0.0965
20 net_20732:14 inst_27601:A1 0.2555
21 net_20732:4 net_20732:15 0.0608
22 net_20732:15 net_20732:16 0.3721
23 net_20732:16 net_20732:17 0.4648
24 net_20732:17 net_20732:18 0.2376
25 net_20732:18 inst_14614:A2 0.1146
*END

*D_NET net_26930 0.6447
*CONN
*I inst_5583:ZN O
*I inst_1364:A I
*CAP
1 inst_5583:ZN 0.1439
2 net_26930:1 0.2502
3 inst_1364:A 0.2506
*RES
2 inst_5583:ZN net_26930:1 0.4486
3 net_26930:1 inst_1364:A 0.0641
*END

*D_NET net_79884 0.4185
*CONN
*I inst_65847:QN O
*I inst_4285:B2 I
*I inst_4286:A2 I
*CAP
1 inst_65847:QN 0.0079
2 net_79884:1 0.2219
3 inst_4285:B2 0.1001
4 net_79884:2 0.0620
5 inst_4286:A2 0.0267
*RES
2 inst_65847:QN net_79884:1 0.2747
3 net_79884:1 inst_4285:B2 0.1704
4 net_79884:1 net_79884:2 0.1278
5 net_79884:2 inst_4286:A2 0.1079
*END

*D_NET net_17374 3.4015
*CONN
*I inst_63235:ZN O
*I inst_8683:B2 I
*I inst_66699:D I
*I inst_38975:A2 I
*CAP
1 inst_63235:ZN 0.1254
2 net_17374:1 0.4751
3 net_17374:2 0.3195
4 net_17374:3 0.4748
5 net_17374:4 0.2505
6 inst_38975:A2 0.2036
7 net_17374:5 0.2723
8 net_17374:6 0.2079
9 net_17374:7 0.2449
10 inst_66699:D 0.0406
11 net_17374:8 0.0937
12 net_17374:9 0.2944
13 inst_8683:B2 0.3987
*RES
2 inst_63235:ZN net_17374:1 0.3990
3 net_17374:1 net_17374:2 0.0185
4 net_17374:2 net_17374:3 0.3777
5 net_17374:3 net_17374:4 0.2437
6 net_17374:4 inst_38975:A2 0.3641
7 net_17374:1 net_17374:5 0.0917
8 net_17374:5 net_17374:6 0.0078
9 net_17374:6 net_17374:7 0.0227
10 net_17374:7 inst_66699:D 0.0264
11 net_17374:3 net_17374:8 0.0209
12 net_17374:8 net_17374:9 0.1182
13 net_17374:9 inst_8683:B2 0.1067
*END

*D_NET net_13692 2.0282
*CONN
*I inst_78549:ZN O
*I inst_166:B I
*CAP
1 inst_78549:ZN 0.3672
2 net_13692:1 0.1157
3 net_13692:2 0.1901
4 net_13692:3 0.2138
5 net_13692:4 0.5008
6 net_13692:5 0.2979
7 inst_166:B 0.3428
*RES
2 inst_78549:ZN net_13692:1 0.2325
3 net_13692:1 net_13692:2 0.2733
4 net_13692:2 net_13692:3 0.1266
5 net_13692:3 net_13692:4 0.3814
6 net_13692:4 net_13692:5 0.1363
7 net_13692:5 inst_166:B 0.3277
*END

*D_NET net_50881 2.1088
*CONN
*I inst_14347:ZN O
*I inst_21621:A2 I
*I inst_30199:A2 I
*CAP
1 inst_14347:ZN 0.4503
2 net_50881:1 0.1603
3 net_50881:2 0.4423
4 net_50881:3 0.1159
5 net_50881:4 0.4527
6 inst_30199:A2 0.1465
7 net_50881:5 0.1546
8 inst_21621:A2 0.1861
*RES
2 inst_14347:ZN net_50881:1 0.1463
3 net_50881:1 net_50881:2 0.4621
4 net_50881:2 net_50881:3 0.4065
5 net_50881:3 net_50881:4 0.0227
6 net_50881:4 inst_30199:A2 0.2236
7 net_50881:4 net_50881:5 0.4367
8 net_50881:5 inst_21621:A2 0.3452
*END

*D_NET net_8477 0.3052
*CONN
*I inst_20634:ZN O
*I inst_1908:A I
*CAP
1 inst_20634:ZN 0.1217
2 net_8477:1 0.1222
3 inst_1908:A 0.0613
*RES
2 inst_20634:ZN net_8477:1 0.1692
3 net_8477:1 inst_1908:A 0.4407
*END

*D_NET net_27104 9.2556
*CONN
*I inst_27307:ZN O
*I inst_45493:A I
*I inst_23497:A1 I
*I inst_20205:A3 I
*I inst_30649:A1 I
*I inst_2705:A1 I
*I inst_44784:A I
*I inst_14776:A1 I
*CAP
1 inst_27307:ZN 0.2563
2 net_27104:1 0.2603
3 net_27104:2 0.2874
4 net_27104:3 0.3072
5 inst_14776:A1 0.2768
6 net_27104:4 0.2138
7 net_27104:5 0.4796
8 net_27104:6 0.3806
9 inst_23497:A1 0.4946
10 net_27104:7 0.1750
11 net_27104:8 0.4103
12 net_27104:9 0.0845
13 inst_20205:A3 0.1888
14 net_27104:10 0.0491
15 net_27104:11 0.4137
16 net_27104:12 0.3046
17 inst_30649:A1 0.2987
18 net_27104:13 0.3629
19 net_27104:14 0.0787
20 net_27104:15 0.2007
21 net_27104:16 0.2971
22 net_27104:17 0.4025
23 inst_2705:A1 0.5010
24 net_27104:18 0.3761
25 net_27104:19 0.0616
26 net_27104:20 0.4298
27 inst_44784:A 0.2857
28 net_27104:21 0.1284
29 net_27104:22 0.0036
30 net_27104:23 0.1731
31 net_27104:24 0.2737
32 net_27104:25 0.3095
33 inst_45493:A 0.4895
*RES
2 inst_27307:ZN net_27104:1 0.1679
3 net_27104:1 net_27104:2 0.2053
4 net_27104:2 net_27104:3 0.2140
5 net_27104:3 inst_14776:A1 0.3306
6 net_27104:1 net_27104:4 0.4608
7 net_27104:4 net_27104:5 0.4692
8 net_27104:5 net_27104:6 0.4766
9 net_27104:6 inst_23497:A1 0.0589
10 net_27104:1 net_27104:7 0.1436
11 net_27104:7 net_27104:8 0.1762
12 net_27104:8 net_27104:9 0.4748
13 net_27104:9 inst_20205:A3 0.0806
14 net_27104:1 net_27104:10 0.2640
15 net_27104:10 net_27104:11 0.1831
16 net_27104:11 net_27104:12 0.4110
17 net_27104:12 inst_30649:A1 0.0191
18 net_27104:9 net_27104:13 0.3538
19 net_27104:13 net_27104:14 0.4649
20 net_27104:14 net_27104:15 0.0482
21 net_27104:15 net_27104:16 0.1062
22 net_27104:16 net_27104:17 0.2963
23 net_27104:17 inst_2705:A1 0.4911
24 net_27104:7 net_27104:18 0.2634
25 net_27104:18 net_27104:19 0.0470
26 net_27104:19 net_27104:20 0.0745
27 net_27104:20 inst_44784:A 0.1738
28 net_27104:18 net_27104:21 0.4033
29 net_27104:21 net_27104:22 0.2734
30 net_27104:22 net_27104:23 0.3461
31 net_27104:23 net_27104:24 0.3729
32 net_27104:24 net_27104:25 0.0418
33 net_27104:25 inst_45493:A 0.3671
*END

*D_NET net_64501 3.0867
*CONN
*I inst_16606:ZN O
*I inst_78719:A1 I
*I inst_48503:A I
*I inst_36992:A2 I
*CAP
1 inst_16606:ZN 0.1458
2 net_64501:1 0.0683
3 net_64501:2 0.2135
4 net_64501:3 0.4484
5 net_64501:4 0.1379
6 net_64501:5 0.1139
7 inst_36992:A2 0.0489
8 net_64501:6 0.2818
9 net_64501:7 0.3290
10 inst_48503:A 0.1592
11 net_64501:8 0.1394
12 net_64501:9 0.0096
13 net_64501:10 0.4963
14 net_64501:11 0.2377
15 inst_78719:A1 0.2571
*RES
2 inst_16606:ZN net_64501:1 0.0861
3 net_64501:1 net_64501:2 0.1477
4 net_64501:2 net_64501:3 0.4806
5 net_64501:3 net_64501:4 0.3473
6 net_64501:4 net_64501:5 0.1114
7 net_64501:5 inst_36992:A2 0.0198
8 net_64501:3 net_64501:6 0.4236
9 net_64501:6 net_64501:7 0.3328
10 net_64501:7 inst_48503:A 0.1906
11 net_64501:7 net_64501:8 0.3610
12 net_64501:8 net_64501:9 0.0042
13 net_64501:9 net_64501:10 0.2690
14 net_64501:10 net_64501:11 0.3841
15 net_64501:11 inst_78719:A1 0.3400
*END

*D_NET net_75528 1.2277
*CONN
*I inst_1039:ZN O
*I inst_68445:D I
*CAP
1 inst_1039:ZN 0.3112
2 net_75528:1 0.4134
3 net_75528:2 0.0741
4 inst_68445:D 0.4290
*RES
2 inst_1039:ZN net_75528:1 0.4891
3 net_75528:1 net_75528:2 0.0621
4 net_75528:2 inst_68445:D 0.2122
*END

*D_NET net_45489 2.9641
*CONN
*I inst_45922:ZN O
*I inst_22058:A1 I
*I inst_20995:A2 I
*I inst_44083:A2 I
*I inst_22052:A1 I
*CAP
1 inst_45922:ZN 0.1253
2 net_45489:1 0.2343
3 net_45489:2 0.1106
4 net_45489:3 0.0283
5 inst_20995:A2 0.2644
6 net_45489:4 0.0520
7 net_45489:5 0.1787
8 net_45489:6 0.3277
9 inst_22058:A1 0.2308
10 net_45489:7 0.3450
11 inst_44083:A2 0.2552
12 net_45489:8 0.2132
13 net_45489:9 0.3448
14 inst_22052:A1 0.2539
*RES
2 inst_45922:ZN net_45489:1 0.3395
3 net_45489:1 net_45489:2 0.4160
4 net_45489:2 net_45489:3 0.1311
5 net_45489:3 inst_20995:A2 0.1702
6 net_45489:2 net_45489:4 0.1825
7 net_45489:4 net_45489:5 0.4154
8 net_45489:5 net_45489:6 0.4205
9 net_45489:6 inst_22058:A1 0.1921
10 net_45489:4 net_45489:7 0.2397
11 net_45489:7 inst_44083:A2 0.3943
12 net_45489:6 net_45489:8 0.0169
13 net_45489:8 net_45489:9 0.2910
14 net_45489:9 inst_22052:A1 0.3418
*END

*D_NET net_50730 3.3094
*CONN
*I inst_26341:ZN O
*I inst_26274:A2 I
*I inst_14295:A2 I
*I inst_12409:A2 I
*I inst_9859:C2 I
*CAP
1 inst_26341:ZN 0.2232
2 net_50730:1 0.3825
3 inst_26274:A2 0.4916
4 net_50730:2 0.2720
5 net_50730:3 0.0605
6 inst_14295:A2 0.1555
7 net_50730:4 0.2983
8 net_50730:5 0.4269
9 net_50730:6 0.0493
10 net_50730:7 0.0341
11 inst_12409:A2 0.3020
12 net_50730:8 0.2956
13 net_50730:9 0.2210
14 inst_9859:C2 0.0970
*RES
2 inst_26341:ZN net_50730:1 0.0258
3 net_50730:1 inst_26274:A2 0.0722
4 net_50730:1 net_50730:2 0.4347
5 net_50730:2 net_50730:3 0.2976
6 net_50730:3 inst_14295:A2 0.3531
7 net_50730:2 net_50730:4 0.3389
8 net_50730:4 net_50730:5 0.4000
9 net_50730:5 net_50730:6 0.0188
10 net_50730:6 net_50730:7 0.4709
11 net_50730:7 inst_12409:A2 0.4204
12 net_50730:4 net_50730:8 0.2798
13 net_50730:8 net_50730:9 0.3150
14 net_50730:9 inst_9859:C2 0.0137
*END

*D_NET net_38752 10.9407
*CONN
*I inst_44893:ZN O
*I inst_31975:A1 I
*I inst_3262:A1 I
*I inst_14945:A1 I
*I inst_31991:A1 I
*I inst_31990:A1 I
*I inst_31976:A1 I
*I inst_9959:C1 I
*I inst_32084:A1 I
*I inst_31971:A1 I
*I inst_19842:A3 I
*CAP
1 inst_44893:ZN 0.3101
2 net_38752:1 0.2047
3 inst_31990:A1 0.3729
4 net_38752:2 0.3083
5 net_38752:3 0.1250
6 net_38752:4 0.3526
7 net_38752:5 0.3715
8 inst_3262:A1 0.3144
9 net_38752:6 0.3118
10 net_38752:7 0.4981
11 net_38752:8 0.3134
12 net_38752:9 0.4059
13 net_38752:10 0.1396
14 inst_14945:A1 0.0910
15 net_38752:11 0.0044
16 inst_31991:A1 0.1986
17 net_38752:12 0.2737
18 inst_31975:A1 0.4724
19 net_38752:13 0.2008
20 net_38752:14 0.3776
21 net_38752:15 0.2937
22 inst_31976:A1 0.0093
23 net_38752:16 0.3242
24 net_38752:17 0.2336
25 net_38752:18 0.3863
26 net_38752:19 0.2365
27 inst_9959:C1 0.1037
28 net_38752:20 0.2417
29 net_38752:21 0.2444
30 net_38752:22 0.4262
31 net_38752:23 0.3737
32 net_38752:24 0.3015
33 inst_32084:A1 0.1830
34 net_38752:25 0.1111
35 net_38752:26 0.3711
36 net_38752:27 0.0512
37 inst_31971:A1 0.1351
38 net_38752:28 0.3234
39 net_38752:29 0.4610
40 inst_19842:A3 0.4832
*RES
2 inst_44893:ZN net_38752:1 0.0610
3 net_38752:1 inst_31990:A1 0.4010
4 net_38752:1 net_38752:2 0.3618
5 net_38752:2 net_38752:3 0.0820
6 net_38752:3 net_38752:4 0.2174
7 net_38752:4 net_38752:5 0.3638
8 net_38752:5 inst_3262:A1 0.4097
9 net_38752:2 net_38752:6 0.1278
10 net_38752:6 net_38752:7 0.3093
11 net_38752:7 net_38752:8 0.3342
12 net_38752:8 net_38752:9 0.2150
13 net_38752:9 net_38752:10 0.0109
14 net_38752:10 inst_14945:A1 0.1830
15 net_38752:5 net_38752:11 0.0476
16 net_38752:11 inst_31991:A1 0.0521
17 net_38752:1 net_38752:12 0.2677
18 net_38752:12 inst_31975:A1 0.2426
19 net_38752:4 net_38752:13 0.2822
20 net_38752:13 net_38752:14 0.4311
21 net_38752:14 net_38752:15 0.0309
22 net_38752:15 inst_31976:A1 0.1138
23 net_38752:12 net_38752:16 0.3572
24 net_38752:16 net_38752:17 0.2211
25 net_38752:17 net_38752:18 0.2185
26 net_38752:18 net_38752:19 0.2266
27 net_38752:19 inst_9959:C1 0.2538
28 net_38752:5 net_38752:20 0.3035
29 net_38752:20 net_38752:21 0.4053
30 net_38752:21 net_38752:22 0.0863
31 net_38752:22 net_38752:23 0.2362
32 net_38752:23 net_38752:24 0.1365
33 net_38752:24 inst_32084:A1 0.0277
34 net_38752:21 net_38752:25 0.0984
35 net_38752:25 net_38752:26 0.0368
36 net_38752:26 net_38752:27 0.4376
37 net_38752:27 inst_31971:A1 0.1423
38 net_38752:7 net_38752:28 0.2776
39 net_38752:28 net_38752:29 0.3781
40 net_38752:29 inst_19842:A3 0.3766
*END

*D_NET net_61817 2.6066
*CONN
*I inst_41119:ZN O
*I inst_10518:C2 I
*I inst_41083:A2 I
*CAP
1 inst_41119:ZN 0.3877
2 net_61817:1 0.3738
3 net_61817:2 0.4556
4 inst_10518:C2 0.1835
5 net_61817:3 0.1158
6 net_61817:4 0.1153
7 net_61817:5 0.3810
8 net_61817:6 0.1100
9 net_61817:7 0.1662
10 inst_41083:A2 0.3178
*RES
2 inst_41119:ZN net_61817:1 0.0020
3 net_61817:1 net_61817:2 0.2614
4 net_61817:2 inst_10518:C2 0.3010
5 net_61817:1 net_61817:3 0.2541
6 net_61817:3 net_61817:4 0.2497
7 net_61817:4 net_61817:5 0.4625
8 net_61817:5 net_61817:6 0.2343
9 net_61817:6 net_61817:7 0.0981
10 net_61817:7 inst_41083:A2 0.3461
*END

*D_NET net_33729 1.4352
*CONN
*I inst_35232:ZN O
*I inst_73448:B2 I
*I inst_10254:A I
*CAP
1 inst_35232:ZN 0.4109
2 net_33729:1 0.2326
3 inst_73448:B2 0.0121
4 net_33729:2 0.0138
5 net_33729:3 0.4527
6 inst_10254:A 0.3131
*RES
2 inst_35232:ZN net_33729:1 0.2674
3 net_33729:1 inst_73448:B2 0.2072
4 net_33729:1 net_33729:2 0.4392
5 net_33729:2 net_33729:3 0.4048
6 net_33729:3 inst_10254:A 0.0368
*END

*D_NET net_63768 2.1189
*CONN
*I inst_39322:ZN O
*I inst_25363:A3 I
*I inst_17399:A2 I
*CAP
1 inst_39322:ZN 0.2266
2 net_63768:1 0.3736
3 net_63768:2 0.3306
4 net_63768:3 0.3042
5 net_63768:4 0.1317
6 net_63768:5 0.1481
7 inst_17399:A2 0.2485
8 net_63768:6 0.1418
9 inst_25363:A3 0.2138
*RES
2 inst_39322:ZN net_63768:1 0.2201
3 net_63768:1 net_63768:2 0.2966
4 net_63768:2 net_63768:3 0.3013
5 net_63768:3 net_63768:4 0.0758
6 net_63768:4 net_63768:5 0.0262
7 net_63768:5 inst_17399:A2 0.3812
8 net_63768:2 net_63768:6 0.3805
9 net_63768:6 inst_25363:A3 0.2523
*END

*D_NET net_54109 3.0879
*CONN
*I inst_29391:ZN O
*I inst_74684:A I
*I inst_57863:A I
*CAP
1 inst_29391:ZN 0.4938
2 net_54109:1 0.2131
3 net_54109:2 0.3201
4 net_54109:3 0.0320
5 net_54109:4 0.2786
6 inst_74684:A 0.3378
7 net_54109:5 0.3351
8 net_54109:6 0.4105
9 net_54109:7 0.3004
10 inst_57863:A 0.3665
*RES
2 inst_29391:ZN net_54109:1 0.4364
3 net_54109:1 net_54109:2 0.2454
4 net_54109:2 net_54109:3 0.4527
5 net_54109:3 net_54109:4 0.2663
6 net_54109:4 inst_74684:A 0.3641
7 net_54109:2 net_54109:5 0.1341
8 net_54109:5 net_54109:6 0.0859
9 net_54109:6 net_54109:7 0.1706
10 net_54109:7 inst_57863:A 0.3812
*END

*D_NET net_34685 20.0140
*CONN
*I inst_45193:ZN O
*I inst_34256:A1 I
*I inst_4608:A1 I
*I inst_26854:A1 I
*I inst_34253:A1 I
*I inst_15865:A1 I
*I inst_15746:A1 I
*I inst_34655:A1 I
*I inst_26897:A2 I
*I inst_3403:A1 I
*I inst_34700:A1 I
*I inst_34254:A1 I
*I inst_34359:A1 I
*I inst_22816:A2 I
*I inst_11254:A2 I
*I inst_34564:A2 I
*I inst_34195:A1 I
*I inst_34567:A1 I
*I inst_15864:A2 I
*CAP
1 inst_45193:ZN 0.1227
2 net_34685:1 0.0059
3 inst_26854:A1 0.3552
4 net_34685:2 0.3594
5 net_34685:3 0.4902
6 net_34685:4 0.4716
7 net_34685:5 0.2112
8 inst_4608:A1 0.1762
9 net_34685:6 0.4669
10 net_34685:7 0.1932
11 net_34685:8 0.0675
12 net_34685:9 0.0053
13 net_34685:10 0.1459
14 inst_34256:A1 0.0437
15 net_34685:11 0.1669
16 net_34685:12 0.4800
17 net_34685:13 0.4518
18 net_34685:14 0.0570
19 net_34685:15 0.4909
20 inst_34253:A1 0.0572
21 net_34685:16 0.4474
22 net_34685:17 0.2931
23 net_34685:18 0.2848
24 net_34685:19 0.2246
25 net_34685:20 0.3320
26 inst_15865:A1 0.3870
27 net_34685:21 0.3589
28 net_34685:22 0.4697
29 inst_15746:A1 0.4844
30 net_34685:23 0.3908
31 inst_34655:A1 0.2921
32 net_34685:24 0.3010
33 net_34685:25 0.1515
34 net_34685:26 0.0492
35 inst_26897:A2 0.2707
36 net_34685:27 0.3648
37 net_34685:28 0.4404
38 net_34685:29 0.3187
39 net_34685:30 0.4272
40 net_34685:31 0.0224
41 inst_3403:A1 0.4026
42 net_34685:32 0.1530
43 net_34685:33 0.2582
44 net_34685:34 0.4484
45 inst_34700:A1 0.0762
46 net_34685:35 0.2972
47 net_34685:36 0.3936
48 net_34685:37 0.4880
49 net_34685:38 0.4169
50 net_34685:39 0.3167
51 inst_34254:A1 0.3376
52 net_34685:40 0.1251
53 net_34685:41 0.0048
54 net_34685:42 0.3126
55 net_34685:43 0.0195
56 inst_34359:A1 0.0541
57 net_34685:44 0.4904
58 inst_22816:A2 0.0915
59 net_34685:45 0.0690
60 net_34685:46 0.2231
61 net_34685:47 0.2934
62 inst_11254:A2 0.0661
63 net_34685:48 0.1282
64 net_34685:49 0.2766
65 net_34685:50 0.4045
66 net_34685:51 0.4267
67 inst_34564:A2 0.4596
68 net_34685:52 0.2110
69 inst_34195:A1 0.2588
70 net_34685:53 0.2489
71 inst_34567:A1 0.2584
72 net_34685:54 0.4099
73 net_34685:55 0.1540
74 net_34685:56 0.0325
75 net_34685:57 0.0924
76 inst_15864:A2 0.1850
*RES
2 inst_45193:ZN net_34685:1 0.3839
3 net_34685:1 inst_26854:A1 0.1840
4 net_34685:1 net_34685:2 0.1166
5 net_34685:2 net_34685:3 0.1660
6 net_34685:3 net_34685:4 0.2177
7 net_34685:4 net_34685:5 0.2908
8 net_34685:5 inst_4608:A1 0.3318
9 net_34685:4 net_34685:6 0.4598
10 net_34685:6 net_34685:7 0.3838
11 net_34685:7 net_34685:8 0.2033
12 net_34685:8 net_34685:9 0.3263
13 net_34685:9 net_34685:10 0.4574
14 net_34685:10 inst_34256:A1 0.4683
15 net_34685:3 net_34685:11 0.5008
16 net_34685:11 net_34685:12 0.1013
17 net_34685:12 net_34685:13 0.2457
18 net_34685:13 net_34685:14 0.4210
19 net_34685:14 net_34685:15 0.2594
20 net_34685:15 inst_34253:A1 0.3565
21 net_34685:13 net_34685:16 0.3663
22 net_34685:16 net_34685:17 0.1512
23 net_34685:17 net_34685:18 0.1368
24 net_34685:18 net_34685:19 0.4493
25 net_34685:19 net_34685:20 0.4663
26 net_34685:20 inst_15865:A1 0.2866
27 net_34685:7 net_34685:21 0.0401
28 net_34685:21 net_34685:22 0.2861
29 net_34685:22 inst_15746:A1 0.1883
30 net_34685:14 net_34685:23 0.4162
31 net_34685:23 inst_34655:A1 0.1285
32 net_34685:17 net_34685:24 0.0711
33 net_34685:24 net_34685:25 0.2365
34 net_34685:25 net_34685:26 0.0021
35 net_34685:26 inst_26897:A2 0.2080
36 net_34685:20 net_34685:27 0.2784
37 net_34685:27 net_34685:28 0.1803
38 net_34685:28 net_34685:29 0.0882
39 net_34685:29 net_34685:30 0.2924
40 net_34685:30 net_34685:31 0.4780
41 net_34685:31 inst_3403:A1 0.3510
42 net_34685:7 net_34685:32 0.1986
43 net_34685:32 net_34685:33 0.3922
44 net_34685:33 net_34685:34 0.3950
45 net_34685:34 inst_34700:A1 0.2666
46 net_34685:30 net_34685:35 0.1073
47 net_34685:35 net_34685:36 0.3579
48 net_34685:36 net_34685:37 0.1300
49 net_34685:37 net_34685:38 0.3795
50 net_34685:38 net_34685:39 0.2362
51 net_34685:39 inst_34254:A1 0.1908
52 net_34685:16 net_34685:40 0.3700
53 net_34685:40 net_34685:41 0.3260
54 net_34685:41 net_34685:42 0.3466
55 net_34685:42 net_34685:43 0.4948
56 net_34685:43 inst_34359:A1 0.4038
57 net_34685:17 net_34685:44 0.4619
58 net_34685:44 inst_22816:A2 0.1065
59 net_34685:18 net_34685:45 0.0281
60 net_34685:45 net_34685:46 0.1011
61 net_34685:46 net_34685:47 0.2539
62 net_34685:47 inst_11254:A2 0.0765
63 net_34685:20 net_34685:48 0.3295
64 net_34685:48 net_34685:49 0.4724
65 net_34685:49 net_34685:50 0.4631
66 net_34685:50 net_34685:51 0.0407
67 net_34685:51 inst_34564:A2 0.4130
68 net_34685:36 net_34685:52 0.0339
69 net_34685:52 inst_34195:A1 0.0519
70 net_34685:52 net_34685:53 0.0346
71 net_34685:53 inst_34567:A1 0.4333
72 net_34685:7 net_34685:54 0.1516
73 net_34685:54 net_34685:55 0.2746
74 net_34685:55 net_34685:56 0.4228
75 net_34685:56 net_34685:57 0.1417
76 net_34685:57 inst_15864:A2 0.3754
*END

*D_NET net_31222 13.2890
*CONN
*I inst_45685:ZN O
*I inst_16211:A1 I
*I inst_34947:A1 I
*I inst_75684:A I
*I inst_11469:A1 I
*I inst_2555:A1 I
*I inst_44225:S I
*I inst_45248:A I
*I inst_44127:A1 I
*I inst_74018:B2 I
*I inst_5120:B1 I
*I inst_23834:A1 I
*I inst_38224:A1 I
*I inst_8312:A I
*CAP
1 inst_45685:ZN 0.0068
2 net_31222:1 0.4220
3 net_31222:2 0.4926
4 inst_44225:S 0.0580
5 net_31222:3 0.4413
6 net_31222:4 0.1336
7 net_31222:5 0.4042
8 inst_34947:A1 0.0451
9 net_31222:6 0.4797
10 net_31222:7 0.0551
11 net_31222:8 0.1877
12 inst_75684:A 0.0973
13 net_31222:9 0.2497
14 net_31222:10 0.2766
15 net_31222:11 0.3086
16 net_31222:12 0.2353
17 net_31222:13 0.4838
18 inst_11469:A1 0.0722
19 net_31222:14 0.1347
20 net_31222:15 0.0224
21 inst_2555:A1 0.3933
22 net_31222:16 0.4918
23 net_31222:17 0.3583
24 net_31222:18 0.0251
25 net_31222:19 0.0071
26 inst_16211:A1 0.2242
27 net_31222:20 0.4585
28 net_31222:21 0.3703
29 inst_45248:A 0.0365
30 net_31222:22 0.1640
31 net_31222:23 0.1778
32 net_31222:24 0.3155
33 net_31222:25 0.4909
34 net_31222:26 0.2285
35 inst_44127:A1 0.2293
36 net_31222:27 0.3973
37 net_31222:28 0.0682
38 net_31222:29 0.0813
39 inst_74018:B2 0.2235
40 net_31222:30 0.2711
41 net_31222:31 0.1177
42 net_31222:32 0.1130
43 net_31222:33 0.0719
44 inst_5120:B1 0.2913
45 net_31222:34 0.4330
46 net_31222:35 0.3792
47 inst_23834:A1 0.3945
48 net_31222:36 0.3986
49 inst_38224:A1 0.0342
50 net_31222:37 0.0789
51 net_31222:38 0.1418
52 net_31222:39 0.2162
53 net_31222:40 0.3480
54 net_31222:41 0.3423
55 inst_8312:A 0.3091
*RES
2 inst_45685:ZN net_31222:1 0.3810
3 net_31222:1 net_31222:2 0.2195
4 net_31222:2 inst_44225:S 0.2042
5 net_31222:1 net_31222:3 0.2391
6 net_31222:3 net_31222:4 0.0321
7 net_31222:4 net_31222:5 0.4146
8 net_31222:5 inst_34947:A1 0.0857
9 net_31222:3 net_31222:6 0.4235
10 net_31222:6 net_31222:7 0.1903
11 net_31222:7 net_31222:8 0.2143
12 net_31222:8 inst_75684:A 0.0701
13 net_31222:4 net_31222:9 0.3539
14 net_31222:9 net_31222:10 0.3446
15 net_31222:10 net_31222:11 0.0192
16 net_31222:11 net_31222:12 0.1341
17 net_31222:12 net_31222:13 0.4054
18 net_31222:13 inst_11469:A1 0.3681
19 net_31222:12 net_31222:14 0.2244
20 net_31222:14 net_31222:15 0.4154
21 net_31222:15 inst_2555:A1 0.1374
22 net_31222:6 net_31222:16 0.4834
23 net_31222:16 net_31222:17 0.4589
24 net_31222:17 net_31222:18 0.0098
25 net_31222:18 net_31222:19 0.3264
26 net_31222:19 inst_16211:A1 0.2846
27 net_31222:19 net_31222:20 0.4409
28 net_31222:20 net_31222:21 0.4335
29 net_31222:21 inst_45248:A 0.3158
30 net_31222:11 net_31222:22 0.4514
31 net_31222:22 net_31222:23 0.1489
32 net_31222:23 net_31222:24 0.3442
33 net_31222:24 net_31222:25 0.1815
34 net_31222:25 net_31222:26 0.2112
35 net_31222:26 inst_44127:A1 0.3238
36 net_31222:8 net_31222:27 0.0018