*SPEF "IEEE 1481-1998"
*DESIGN "c7552_slack"
*DATE "Tue Nov 25 16:54:57 2014"
*VENDOR "TAU 2015 Contest"
*PROGRAM "Benchmark Parasitic Generator"
*VERSION "0.0"
*DESIGN_FLOW "NETLIST_TYPE_VERILOG"
*DIVIDER /
*DELIMITER :
*BUS_DELIMITER [ ]
*T_UNIT 1 PS
*C_UNIT 1 FF
*R_UNIT 1 KOHM
*L_UNIT 1 UH

*D_NET n408 3.1744
*CONN
*I inst_518:ZN O
*P n408 O
*I inst_305:A2 I
*CAP
1 n408 0.0091
2 inst_518:ZN 0.0366
3 inst_305:A2 0.0166
4 n408:1 0.0167
5 n408:2 0.0202
6 n408:3 0.1974
7 n408:4 0.2446
8 n408:5 0.0561
9 n408:6 0.0227
10 n408:7 0.0227
11 n408:8 0.0449
12 n408:9 0.0448
13 n408:10 0.0448
14 n408:11 0.0152
15 n408:12 0.3351
16 n408:13 0.3351
17 n408:14 0.0273
18 n408:15 0.0273
19 n408:16 0.7447
20 n408:17 0.7447
21 n408:18 0.0141
22 n408:19 0.0770
23 n408:20 0.0770
*RES
2 inst_518:ZN n408:8 0.0041
3 n408:1 n408 0.0010
4 n408:2 n408:1 0.0050
5 n408:3 n408:2 0.0010
6 n408:4 n408:3 0.0156
7 n408:5 n408:4 0.0047
8 n408:5 n408:6 0.0050
9 n408:6 n408:7 0.0015
10 n408:7 inst_305:A2 0.0050
11 n408:9 n408:8 0.0050
12 n408:10 n408:9 0.0030
13 n408:11 n408:10 0.0050
14 n408:12 n408:11 0.0050
15 n408:13 n408:12 0.0086
16 n408:14 n408:13 0.0030
17 n408:14 n408:15 0.0010
18 n408:16 n408:15 0.0030
19 n408:17 n408:16 0.0277
20 n408:18 n408:17 0.0030
21 n408:19 n408:18 0.0030
22 n408:20 n408:4 0.0050
23 n408:20 n408:19 0.0036
*END

*D_NET n319 1.3713
*CONN
*I inst_279:ZN O
*P n319 O
*CAP
1 n319 0.0340
2 inst_279:ZN 0.0166
3 n319:1 0.1778
4 n319:2 0.1778
5 n319:3 0.0213
6 n319:4 0.0213
7 n319:5 0.2123
8 n319:6 0.2123
9 n319:7 0.2262
10 n319:8 0.2262
11 n319:9 0.0454
*RES
2 n319 n319:9 0.0031
3 n319:1 inst_279:ZN 0.0050
4 n319:2 n319:1 0.0115
5 n319:3 n319:2 0.0050
6 n319:3 n319:4 0.0010
7 n319:5 n319:4 0.0050
8 n319:6 n319:5 0.0069
9 n319:7 n319:6 0.0050
10 n319:7 n319:8 0.0165
11 n319:9 n319:8 0.0050
*END

*D_NET net_796 0.1778
*CONN
*I inst_81:Z O
*I inst_231:A I
*CAP
1 inst_81:Z 0.0166
2 inst_231:A 0.0166
3 net_796:1 0.0383
4 net_796:2 0.0406
5 net_796:3 0.0340
6 net_796:4 0.0317
*RES
2 inst_81:Z net_796:4 0.0050
3 net_796:1 inst_231:A 0.0050
4 net_796:2 net_796:1 0.0025
5 net_796:3 net_796:2 0.0010
6 net_796:4 net_796:3 0.0025
*END

*D_NET net_416 0.1118
*CONN
*I inst_1119:ZN O
*I inst_527:A1 I
*CAP
1 inst_1119:ZN 0.0166
2 inst_527:A1 0.0166
3 net_416:1 0.0152
4 net_416:2 0.0241
5 net_416:3 0.0241
6 net_416:4 0.0152
*RES
2 inst_1119:ZN net_416:4 0.0050
3 net_416:1 inst_527:A1 0.0050
4 net_416:2 net_416:1 0.0050
5 net_416:2 net_416:3 0.0014
6 net_416:4 net_416:3 0.0050
*END

*D_NET net_215 0.1274
*CONN
*I inst_8:Z O
*I inst_144:B I
*CAP
1 inst_8:Z 0.0166
2 inst_144:B 0.0166
3 net_215:1 0.0152
4 net_215:2 0.0319
5 net_215:3 0.0319
6 net_215:4 0.0152
*RES
2 inst_8:Z net_215:4 0.0050
3 net_215:1 inst_144:B 0.0050
4 net_215:2 net_215:1 0.0050
5 net_215:2 net_215:3 0.0020
6 net_215:4 net_215:3 0.0050
*END

*D_NET net_933 0.3616
*CONN
*I inst_593:ZN O
*I inst_843:A2 I
*CAP
1 inst_593:ZN 0.0166
2 inst_843:A2 0.0072
3 net_933:1 0.0204
4 net_933:2 0.0204
5 net_933:3 0.0093
6 net_933:4 0.0093
7 net_933:5 0.0669
8 net_933:6 0.0669
9 net_933:7 0.0200
10 net_933:8 0.0200
11 net_933:9 0.0464
12 net_933:10 0.0426
13 net_933:11 0.0155
*RES
2 net_933:1 inst_593:ZN 0.0050
3 net_933:1 net_933:2 0.0010
4 net_933:3 net_933:2 0.0050
5 net_933:3 net_933:4 0.0010
6 net_933:5 net_933:4 0.0050
7 net_933:5 net_933:6 0.0015
8 net_933:7 net_933:6 0.0050
9 net_933:8 net_933:7 0.0010
10 net_933:9 net_933:8 0.0050
11 net_933:9 net_933:10 0.0050
12 net_933:11 inst_843:A2 0.0010
13 net_933:11 net_933:10 0.0050
*END

*D_NET net_54 0.1404
*CONN
*I inst_622:ZN O
*I inst_711:A1 I
*CAP
1 inst_622:ZN 0.0152
2 inst_711:A1 0.0166
3 net_54:1 0.0152
4 net_54:2 0.0274
5 net_54:3 0.0274
6 net_54:4 0.0152
7 net_54:5 0.0235
*RES
2 inst_622:ZN net_54:5 0.0021
3 net_54:1 inst_711:A1 0.0050
4 net_54:2 net_54:1 0.0050
5 net_54:3 net_54:2 0.0020
6 net_54:4 net_54:3 0.0050
7 net_54:5 net_54:4 0.0050
*END

*D_NET net_526 0.5432
*CONN
*I inst_326:ZN O
*I inst_784:A2 I
*CAP
1 inst_326:ZN 0.0157
2 inst_784:A2 0.0146
3 net_526:1 0.0241
4 net_526:2 0.0560
5 net_526:3 0.0560
6 net_526:4 0.1547
7 net_526:5 0.1547
8 net_526:6 0.0223
9 net_526:7 0.0223
10 net_526:8 0.0229
*RES
2 inst_784:A2 net_526:8 0.0021
3 net_526:1 inst_326:ZN 0.0021
4 net_526:2 net_526:1 0.0050
5 net_526:3 net_526:2 0.0045
6 net_526:4 net_526:3 0.0050
7 net_526:5 net_526:4 0.0122
8 net_526:6 net_526:5 0.0050
9 net_526:6 net_526:7 0.0015
10 net_526:8 net_526:7 0.0050
*END

*D_NET net_943 0.9604
*CONN
*I inst_244:ZN O
*I inst_899:A I
*I inst_900:B I
*CAP
1 inst_244:ZN 0.0076
2 inst_899:A 0.0166
3 inst_900:B 0.0166
4 net_943:1 0.0152
5 net_943:2 0.0168
6 net_943:3 0.0888
7 net_943:4 0.0796
8 net_943:5 0.0152
9 net_943:6 0.0201
10 net_943:7 0.0152
11 net_943:8 0.0391
12 net_943:9 0.0391
13 net_943:10 0.2953
14 net_943:11 0.2953
*RES
2 net_943:1 inst_900:B 0.0050
3 net_943:2 net_943:1 0.0050
4 net_943:3 net_943:2 0.0010
5 net_943:4 net_943:3 0.0051
6 net_943:4 net_943:5 0.0050
7 net_943:5 inst_899:A 0.0050
8 net_943:6 inst_244:ZN 0.0010
9 net_943:7 net_943:6 0.0050
10 net_943:8 net_943:7 0.0050
11 net_943:9 net_943:8 0.0023
12 net_943:10 net_943:9 0.0050
13 net_943:11 net_943:3 0.0050
14 net_943:11 net_943:10 0.0103
*END

*D_NET n436 0.9863
*CONN
*I inst_1086:Z O
*P n436 O
*CAP
1 n436 0.0091
2 inst_1086:Z 0.0166
3 n436:1 0.0152
4 n436:2 0.2452
5 n436:3 0.2452
6 n436:4 0.1768
7 n436:5 0.1768
8 n436:6 0.0324
9 n436:7 0.0346
10 n436:8 0.0175
11 n436:9 0.0167
*RES
2 n436:1 inst_1086:Z 0.0050
3 n436:2 n436:1 0.0050
4 n436:2 n436:3 0.0177
5 n436:4 n436:3 0.0050
6 n436:5 n436:4 0.0076
7 n436:6 n436:5 0.0050
8 n436:6 n436:7 0.0026
9 n436:8 n436:7 0.0010
10 n436:9 n436 0.0010
11 n436:9 n436:8 0.0050
*END

*D_NET net_834 0.0287
*CONN
*I inst_1043:ZN O
*I inst_827:A2 I
*CAP
1 inst_1043:ZN 0.0143
2 inst_827:A2 0.0143
*RES
2 inst_1043:ZN inst_827:A2 0.0021
*END

*D_NET net_429 0.1350
*CONN
*I inst_768:ZN O
*I inst_784:A1 I
*CAP
1 inst_768:ZN 0.0166
2 inst_784:A1 0.0166
3 net_429:1 0.0195
4 net_429:2 0.0218
5 net_429:3 0.0314
6 net_429:4 0.0291
*RES
2 inst_768:ZN net_429:4 0.0050
3 net_429:1 inst_784:A1 0.0050
4 net_429:1 net_429:2 0.0010
5 net_429:2 net_429:3 0.0010
6 net_429:3 net_429:4 0.0015
*END

*D_NET net_694 0.3051
*CONN
*I inst_802:ZN O
*I inst_347:A2 I
*CAP
1 inst_802:ZN 0.0166
2 inst_347:A2 0.0166
3 net_694:1 0.0164
4 net_694:2 0.0164
5 net_694:3 0.0835
6 net_694:4 0.0835
7 net_694:5 0.0360
8 net_694:6 0.0360
*RES
2 inst_347:A2 net_694:6 0.0050
3 net_694:1 inst_802:ZN 0.0050
4 net_694:2 net_694:1 0.0010
5 net_694:3 net_694:2 0.0050
6 net_694:4 net_694:3 0.0081
7 net_694:5 net_694:4 0.0050
8 net_694:6 net_694:5 0.0030
*END

*D_NET net_129 0.2150
*CONN
*I inst_386:ZN O
*I inst_350:A1 I
*CAP
1 inst_386:ZN 0.0166
2 inst_350:A1 0.0166
3 net_129:1 0.0178
4 net_129:2 0.0178
5 net_129:3 0.0567
6 net_129:4 0.0567
7 net_129:5 0.0164
8 net_129:6 0.0164
*RES
2 inst_350:A1 net_129:6 0.0050
3 net_129:1 inst_386:ZN 0.0050
4 net_129:1 net_129:2 0.0010
5 net_129:3 net_129:2 0.0050
6 net_129:3 net_129:4 0.0061
7 net_129:5 net_129:4 0.0050
8 net_129:6 net_129:5 0.0010
*END

*D_NET net_648 0.1065
*CONN
*I inst_1029:ZN O
*I inst_805:A2 I
*CAP
1 inst_1029:ZN 0.0166
2 inst_805:A2 0.0166
3 net_648:1 0.0367
4 net_648:2 0.0367
*RES
2 inst_1029:ZN net_648:2 0.0050
3 net_648:1 inst_805:A2 0.0050
4 net_648:2 net_648:1 0.0030
*END

*D_NET net_373 2.2503
*CONN
*I inst_599:ZN O
*I inst_920:A I
*I inst_14:A I
*I inst_61:A I
*I inst_116:A I
*I inst_1115:A1 I
*CAP
1 inst_599:ZN 0.0099
2 inst_920:A 0.0271
3 inst_14:A 0.0166
4 inst_61:A 0.0166
5 inst_116:A 0.0166
6 inst_1115:A1 0.0166
7 net_373:1 0.0152
8 net_373:2 0.0325
9 net_373:3 0.0325
10 net_373:4 0.1098
11 net_373:5 0.0609
12 net_373:6 0.1047
13 net_373:7 0.1047
14 net_373:8 0.0758
15 net_373:9 0.1475
16 net_373:10 0.0717
17 net_373:11 0.0089
18 net_373:12 0.0089
19 net_373:13 0.0179
20 net_373:14 0.0179
21 net_373:15 0.0171
22 net_373:16 0.0171
23 net_373:17 0.1714
24 net_373:18 0.1714
25 net_373:19 0.0359
26 net_373:20 0.0359
27 net_373:21 0.1672
28 net_373:22 0.0834
29 net_373:23 0.0572
30 net_373:24 0.0572
31 net_373:25 0.0229
32 net_373:26 0.0603
33 net_373:27 0.0182
34 net_373:28 0.0152
35 net_373:29 0.0703
36 net_373:30 0.0703
37 net_373:31 0.0875
38 net_373:32 0.0875
39 net_373:33 0.0914
*RES
2 net_373:1 inst_14:A 0.0050
3 net_373:2 net_373:1 0.0050
4 net_373:2 net_373:3 0.0020
5 net_373:4 net_373:3 0.0050
6 net_373:4 net_373:5 0.0045
7 net_373:5 net_373:6 0.0050
8 net_373:6 net_373:7 0.0074
9 net_373:7 net_373:8 0.0050
10 net_373:8 net_373:9 0.0027
11 net_373:9 net_373:10 0.0017
12 net_373:9 net_373:18 0.0050
13 net_373:10 net_373:11 0.0050
14 net_373:11 net_373:12 0.0010
15 net_373:12 net_373:13 0.0050
16 net_373:13 net_373:14 0.0010
17 net_373:14 inst_1115:A1 0.0050
18 net_373:15 inst_61:A 0.0050
19 net_373:15 net_373:16 0.0010
20 net_373:17 net_373:16 0.0050
21 net_373:18 net_373:17 0.0184
22 net_373:19 inst_116:A 0.0050
23 net_373:19 net_373:20 0.0025
24 net_373:21 net_373:20 0.0050
25 net_373:21 net_373:33 0.0069
26 net_373:22 net_373:21 0.0061
27 net_373:22 net_373:23 0.0050
28 net_373:23 net_373:24 0.0040
29 net_373:24 inst_920:A 0.0050
30 net_373:25 inst_920:A 0.0021
31 net_373:25 net_373:26 0.0050
32 net_373:26 net_373:4 0.0085
33 net_373:27 inst_599:ZN 0.0010
34 net_373:28 net_373:27 0.0050
35 net_373:29 net_373:28 0.0050
36 net_373:30 net_373:29 0.0053
37 net_373:31 net_373:30 0.0050
38 net_373:31 net_373:32 0.0021
39 net_373:33 net_373:32 0.0050
*END

*D_NET net_98 0.4139
*CONN
*I inst_373:ZN O
*I inst_387:A2 I
*CAP
1 inst_373:ZN 0.0166
2 inst_387:A2 0.0076
3 net_98:1 0.0529
4 net_98:2 0.0529
5 net_98:3 0.0940
6 net_98:4 0.0940
7 net_98:5 0.0380
8 net_98:6 0.0380
9 net_98:7 0.0201
*RES
2 net_98:1 inst_373:ZN 0.0050
3 net_98:1 net_98:2 0.0060
4 net_98:3 net_98:2 0.0050
5 net_98:3 net_98:4 0.0054
6 net_98:5 net_98:4 0.0050
7 net_98:5 net_98:6 0.0040
8 net_98:7 inst_387:A2 0.0010
9 net_98:7 net_98:6 0.0050
*END

*D_NET net_739 1.7885
*CONN
*I inst_199:ZN O
*I inst_546:A1 I
*CAP
1 inst_199:ZN 0.0076
2 inst_546:A1 0.0166
3 net_739:1 0.0201
4 net_739:2 0.0165
5 net_739:3 0.0165
6 net_739:4 0.0111
7 net_739:5 0.0111
8 net_739:6 0.7883
9 net_739:7 0.7883
10 net_739:8 0.0487
11 net_739:9 0.0487
12 net_739:10 0.0152
*RES
2 inst_546:A1 net_739:10 0.0050
3 net_739:1 inst_199:ZN 0.0010
4 net_739:2 net_739:1 0.0050
5 net_739:3 net_739:2 0.0010
6 net_739:4 net_739:3 0.0050
7 net_739:4 net_739:5 0.0010
8 net_739:6 net_739:5 0.0050
9 net_739:7 net_739:6 0.0239
10 net_739:8 net_739:7 0.0050
11 net_739:9 net_739:8 0.0065
12 net_739:10 net_739:9 0.0050
*END

*D_NET net_980 0.1863
*CONN
*I inst_269:ZN O
*I inst_281:B I
*CAP
1 inst_269:ZN 0.0166
2 inst_281:B 0.0166
3 net_980:1 0.0178
4 net_980:2 0.0178
5 net_980:3 0.0511
6 net_980:4 0.0511
7 net_980:5 0.0152
*RES
2 inst_281:B net_980:5 0.0050
3 net_980:1 inst_269:ZN 0.0050
4 net_980:1 net_980:2 0.0010
5 net_980:3 net_980:2 0.0050
6 net_980:3 net_980:4 0.0068
7 net_980:5 net_980:4 0.0050
*END

*D_NET net_151 1.4370
*CONN
*I inst_673:ZN O
*I inst_703:A2 I
*I inst_716:A2 I
*CAP
1 inst_673:ZN 0.0330
2 inst_703:A2 0.0166
3 inst_716:A2 0.0072
4 net_151:1 0.0957
5 net_151:2 0.1337
6 net_151:3 0.0508
7 net_151:4 0.0505
8 net_151:5 0.0421
9 net_151:6 0.0424
10 net_151:7 0.0177
11 net_151:8 0.0177
12 net_151:9 0.0155
13 net_151:10 0.0413
14 net_151:11 0.0183
15 net_151:12 0.0183
16 net_151:13 0.3953
17 net_151:14 0.3953
18 net_151:15 0.0456
*RES
2 inst_673:ZN net_151:10 0.0041
3 net_151:1 inst_703:A2 0.0050
4 net_151:1 net_151:2 0.0075
5 net_151:2 net_151:15 0.0055
6 net_151:2 net_151:3 0.0050
7 net_151:3 net_151:4 0.0027
8 net_151:5 net_151:4 0.0010
9 net_151:5 net_151:6 0.0027
10 net_151:6 net_151:7 0.0050
11 net_151:8 net_151:7 0.0010
12 net_151:8 net_151:9 0.0050
13 net_151:9 inst_716:A2 0.0010
14 net_151:11 net_151:10 0.0050
15 net_151:11 net_151:12 0.0010
16 net_151:13 net_151:12 0.0050
17 net_151:13 net_151:14 0.0360
18 net_151:15 net_151:14 0.0050
*END

*D_NET net_356 1.1604
*CONN
*I inst_391:ZN O
*I inst_733:A1 I
*I inst_55:A I
*I inst_56:B I
*CAP
1 inst_391:ZN 0.0076
2 inst_733:A1 0.0166
3 inst_55:A 0.0332
4 inst_56:B 0.0332
5 net_356:1 0.0166
6 net_356:2 0.0166
7 net_356:3 0.0380
8 net_356:4 0.0380
9 net_356:5 0.0152
10 net_356:6 0.0494
11 net_356:7 0.0532
12 net_356:8 0.0691
13 net_356:9 0.0691
14 net_356:10 0.0405
15 net_356:11 0.0405
16 net_356:12 0.0159
17 net_356:13 0.0152
18 net_356:14 0.2785
19 net_356:15 0.2785
20 net_356:16 0.0178
21 net_356:17 0.0178
*RES
2 inst_55:A net_356:17 0.0050
3 inst_55:A net_356:11 0.0050
4 inst_56:B net_356:5 0.0050
5 net_356:1 inst_733:A1 0.0050
6 net_356:2 net_356:1 0.0010
7 net_356:3 net_356:2 0.0050
8 net_356:3 net_356:4 0.0041
9 net_356:5 net_356:4 0.0050
10 net_356:6 inst_56:B 0.0050
11 net_356:6 net_356:7 0.0030
12 net_356:8 net_356:7 0.0050
13 net_356:8 net_356:9 0.0088
14 net_356:10 net_356:9 0.0050
15 net_356:10 net_356:11 0.0025
16 net_356:12 inst_391:ZN 0.0010
17 net_356:13 net_356:12 0.0050
18 net_356:14 net_356:13 0.0050
19 net_356:15 net_356:14 0.0231
20 net_356:16 net_356:15 0.0050
21 net_356:17 net_356:16 0.0010
*END

*D_NET net_53 0.8797
*CONN
*I inst_620:ZN O
*I inst_702:A1 I
*CAP
1 inst_620:ZN 0.0070
2 inst_702:A1 0.0166
3 net_53:1 0.0195
4 net_53:2 0.0152
5 net_53:3 0.0117
6 net_53:4 0.0117
7 net_53:5 0.0177
8 net_53:6 0.3497
9 net_53:7 0.3497
10 net_53:8 0.0177
11 net_53:9 0.0144
12 net_53:10 0.0144
13 net_53:11 0.0173
14 net_53:12 0.0173
*RES
2 inst_702:A1 net_53:12 0.0050
3 net_53:1 inst_620:ZN 0.0010
4 net_53:2 net_53:1 0.0050
5 net_53:3 net_53:2 0.0050
6 net_53:4 net_53:3 0.0010
7 net_53:5 net_53:4 0.0050
8 net_53:6 net_53:5 0.0030
9 net_53:7 net_53:6 0.0143
10 net_53:8 net_53:7 0.0030
11 net_53:9 net_53:8 0.0050
12 net_53:10 net_53:9 0.0010
13 net_53:11 net_53:10 0.0050
14 net_53:12 net_53:11 0.0010
*END

*D_NET net_452 1.5507
*CONN
*I inst_412:ZN O
*I inst_990:A I
*I inst_158:B I
*I inst_248:A I
*CAP
1 inst_412:ZN 0.0166
2 inst_990:A 0.0070
3 inst_158:B 0.0166
4 inst_248:A 0.0166
5 net_452:1 0.0153
6 net_452:2 0.0674
7 net_452:3 0.0674
8 net_452:4 0.1910
9 net_452:5 0.2138
10 net_452:6 0.0301
11 net_452:7 0.1046
12 net_452:8 0.1049
13 net_452:9 0.0263
14 net_452:10 0.0863
15 net_452:11 0.0330
16 net_452:12 0.0330
17 net_452:13 0.2037
18 net_452:14 0.2037
19 net_452:15 0.0714
20 net_452:16 0.0210
21 net_452:17 0.0210
*RES
2 inst_990:A net_452:1 0.0010
3 net_452:2 net_452:1 0.0050
4 net_452:2 net_452:3 0.0065
5 net_452:4 net_452:3 0.0050
6 net_452:4 net_452:5 0.0176
7 net_452:5 net_452:6 0.0027
8 net_452:7 net_452:6 0.0010
9 net_452:7 net_452:8 0.0081
10 net_452:8 net_452:9 0.0050
11 net_452:10 inst_248:A 0.0050
12 net_452:10 net_452:9 0.0025
13 net_452:11 inst_158:B 0.0050
14 net_452:12 net_452:11 0.0020
15 net_452:13 net_452:12 0.0050
16 net_452:14 net_452:13 0.0176
17 net_452:15 net_452:10 0.0070
18 net_452:15 net_452:14 0.0050
19 net_452:16 inst_412:ZN 0.0050
20 net_452:17 net_452:5 0.0050
21 net_452:17 net_452:16 0.0015
*END

*D_NET n63 1.6352
*CONN
*P n63 I
*I inst_878:B I
*CAP
1 n63 0.0107
2 inst_878:B 0.0166
3 n63:1 0.0221
4 n63:2 0.0147
5 n63:3 0.0147
6 n63:4 0.0177
7 n63:5 0.0141
8 n63:6 0.4261
9 n63:7 0.4261
10 n63:8 0.0249
11 n63:9 0.0249
12 n63:10 0.2926
13 n63:11 0.2926
14 n63:12 0.0111
15 n63:13 0.0111
16 n63:14 0.0152
*RES
2 n63 n63:1 0.0011
3 inst_878:B n63:14 0.0050
4 n63:2 n63:1 0.0050
5 n63:3 n63:2 0.0010
6 n63:4 n63:3 0.0050
7 n63:5 n63:4 0.0030
8 n63:6 n63:5 0.0030
9 n63:6 n63:7 0.0181
10 n63:8 n63:7 0.0030
11 n63:9 n63:8 0.0010
12 n63:10 n63:9 0.0030
13 n63:10 n63:11 0.0086
14 n63:12 n63:11 0.0050
15 n63:13 n63:12 0.0010
16 n63:14 n63:13 0.0050
*END

*D_NET net_974 0.4686
*CONN
*I inst_509:ZN O
*I inst_1143:A2 I
*I inst_511:A2 I
*CAP
1 inst_509:ZN 0.0166
2 inst_1143:A2 0.0166
3 inst_511:A2 0.0166
4 net_974:1 0.0152
5 net_974:2 0.0398
6 net_974:3 0.0862
7 net_974:4 0.0578
8 net_974:5 0.0202
9 net_974:6 0.0202
10 net_974:7 0.0316
11 net_974:8 0.0339
12 net_974:9 0.0581
13 net_974:10 0.0558
*RES
2 net_974:1 inst_1143:A2 0.0050
3 net_974:2 net_974:1 0.0050
4 net_974:2 net_974:3 0.0020
5 net_974:3 net_974:4 0.0027
6 net_974:4 net_974:5 0.0050
7 net_974:5 net_974:6 0.0010
8 net_974:6 inst_511:A2 0.0050
9 net_974:7 inst_509:ZN 0.0050
10 net_974:7 net_974:8 0.0020
11 net_974:9 net_974:8 0.0010
12 net_974:9 net_974:10 0.0070
13 net_974:10 net_974:3 0.0050
*END

*D_NET net_545 0.1291
*CONN
*I inst_341:ZN O
*I inst_1134:A2 I
*CAP
1 inst_341:ZN 0.0062
2 inst_1134:A2 0.0166
3 net_545:1 0.0152
4 net_545:2 0.0307
5 net_545:3 0.0307
6 net_545:4 0.0152
7 net_545:5 0.0145
*RES
2 net_545:1 inst_1134:A2 0.0050
3 net_545:2 net_545:1 0.0050
4 net_545:2 net_545:3 0.0014
5 net_545:4 net_545:3 0.0050
6 net_545:5 inst_341:ZN 0.0010
7 net_545:5 net_545:4 0.0050
*END

*D_NET net_284 1.5313
*CONN
*I inst_859:Z O
*I inst_13:B I
*I inst_29:A I
*I inst_1097:A3 I
*CAP
1 inst_859:Z 0.0166
2 inst_13:B 0.0166
3 inst_29:A 0.0166
4 inst_1097:A3 0.0166
5 net_284:1 0.0163
6 net_284:2 0.0685
7 net_284:3 0.2783
8 net_284:4 0.3916
9 net_284:5 0.0372
10 net_284:6 0.0372
11 net_284:7 0.0597
12 net_284:8 0.0177
13 net_284:9 0.0177
14 net_284:10 0.0998
15 net_284:11 0.0998
16 net_284:12 0.1100
17 net_284:13 0.1100
18 net_284:14 0.1209
*RES
2 net_284:1 inst_29:A 0.0050
3 net_284:2 net_284:1 0.0010
4 net_284:3 net_284:2 0.0050
5 net_284:3 net_284:4 0.0143
6 net_284:4 net_284:14 0.0116
7 net_284:4 net_284:5 0.0050
8 net_284:5 net_284:6 0.0020
9 net_284:6 inst_13:B 0.0050
10 net_284:7 inst_1097:A3 0.0050
11 net_284:7 net_284:2 0.0035
12 net_284:8 inst_859:Z 0.0050
13 net_284:8 net_284:9 0.0010
14 net_284:10 net_284:9 0.0050
15 net_284:11 net_284:10 0.0061
16 net_284:12 net_284:11 0.0050
17 net_284:12 net_284:13 0.0027
18 net_284:14 net_284:13 0.0050
*END

*D_NET net_560 0.6529
*CONN
*I inst_424:ZN O
*I inst_771:A1 I
*I inst_468:A1 I
*I inst_582:A2 I
*CAP
1 inst_424:ZN 0.0166
2 inst_771:A1 0.0166
3 inst_468:A1 0.0166
4 inst_582:A2 0.0166
5 net_560:1 0.0210
6 net_560:2 0.0210
7 net_560:3 0.0864
8 net_560:4 0.0864
9 net_560:5 0.0342
10 net_560:6 0.0365
11 net_560:7 0.0244
12 net_560:8 0.0183
13 net_560:9 0.0180
14 net_560:10 0.0180
15 net_560:11 0.0740
16 net_560:12 0.0393
17 net_560:13 0.0333
18 net_560:14 0.0333
19 net_560:15 0.0423
*RES
2 net_560:1 inst_468:A1 0.0050
3 net_560:1 net_560:2 0.0010
4 net_560:3 net_560:2 0.0050
5 net_560:4 net_560:3 0.0088
6 net_560:5 net_560:4 0.0050
7 net_560:5 net_560:6 0.0030
8 net_560:7 net_560:6 0.0010
9 net_560:7 net_560:8 0.0010
10 net_560:8 inst_771:A1 0.0050
11 net_560:9 inst_582:A2 0.0050
12 net_560:10 net_560:9 0.0010
13 net_560:11 net_560:10 0.0050
14 net_560:11 net_560:12 0.0027
15 net_560:12 net_560:7 0.0050
16 net_560:13 inst_424:ZN 0.0050
17 net_560:14 net_560:13 0.0035
18 net_560:15 net_560:11 0.0054
19 net_560:15 net_560:14 0.0050
*END

*D_NET net_774 0.1801
*CONN
*I inst_484:ZN O
*I inst_237:B I
*CAP
1 inst_484:ZN 0.0055
2 inst_237:B 0.0166
3 net_774:1 0.0176
4 net_774:2 0.0176
5 net_774:3 0.0470
6 net_774:4 0.0470
7 net_774:5 0.0152
8 net_774:6 0.0138
*RES
2 inst_484:ZN net_774:6 0.0010
3 net_774:1 inst_237:B 0.0050
4 net_774:2 net_774:1 0.0010
5 net_774:3 net_774:2 0.0050
6 net_774:4 net_774:3 0.0034
7 net_774:5 net_774:4 0.0050
8 net_774:6 net_774:5 0.0050
*END

*D_NET net_923 1.6621
*CONN
*I inst_834:ZN O
*I inst_1046:A I
*I inst_838:A2 I
*I inst_839:A2 I
*I inst_259:B I
*CAP
1 inst_834:ZN 0.0166
2 inst_1046:A 0.0166
3 inst_838:A2 0.0166
4 inst_839:A2 0.0166
5 inst_259:B 0.0166
6 net_923:1 0.0283
7 net_923:2 0.0189
8 net_923:3 0.0234
9 net_923:4 0.0234
10 net_923:5 0.0741
11 net_923:6 0.0741
12 net_923:7 0.1784
13 net_923:8 0.1784
14 net_923:9 0.0219
15 net_923:10 0.0219
16 net_923:11 0.1283
17 net_923:12 0.0447
18 net_923:13 0.0312
19 net_923:14 0.0325
20 net_923:15 0.0325
21 net_923:16 0.0152
22 net_923:17 0.0097
23 net_923:18 0.0097
24 net_923:19 0.0998
25 net_923:20 0.0998
26 net_923:21 0.0258
27 net_923:22 0.0258
28 net_923:23 0.0207
29 net_923:24 0.0221
30 net_923:25 0.0221
31 net_923:26 0.0471
32 net_923:27 0.0471
33 net_923:28 0.0173
34 net_923:29 0.0173
35 net_923:30 0.0362
36 net_923:31 0.0362
37 net_923:32 0.1148
*RES
2 net_923:1 inst_1046:A 0.0050
3 net_923:1 net_923:23 0.0020
4 net_923:2 net_923:1 0.0010
5 net_923:2 net_923:3 0.0050
6 net_923:3 net_923:4 0.0014
7 net_923:4 net_923:5 0.0050
8 net_923:6 net_923:5 0.0090
9 net_923:6 net_923:7 0.0050
10 net_923:7 net_923:8 0.0163
11 net_923:8 net_923:9 0.0050
12 net_923:10 inst_259:B 0.0050
13 net_923:10 net_923:9 0.0015
14 net_923:11 inst_838:A2 0.0050
15 net_923:11 net_923:32 0.0085
16 net_923:12 net_923:11 0.0015
17 net_923:12 net_923:27 0.0050
18 net_923:13 net_923:12 0.0020
19 net_923:13 net_923:14 0.0050
20 net_923:14 net_923:15 0.0031
21 net_923:15 net_923:16 0.0050
22 net_923:16 net_923:17 0.0050
23 net_923:17 net_923:18 0.0010
24 net_923:18 net_923:19 0.0050
25 net_923:20 net_923:19 0.0034
26 net_923:20 net_923:21 0.0050
27 net_923:21 net_923:22 0.0011
28 net_923:22 net_923:23 0.0050
29 net_923:24 inst_839:A2 0.0050
30 net_923:25 net_923:24 0.0015
31 net_923:26 net_923:25 0.0050
32 net_923:26 net_923:27 0.0041
33 net_923:28 inst_834:ZN 0.0050
34 net_923:29 net_923:28 0.0010
35 net_923:30 net_923:29 0.0050
36 net_923:31 net_923:30 0.0034
37 net_923:32 net_923:31 0.0050
*END

*D_NET net_826 0.1570
*CONN
*I inst_221:ZN O
*I inst_236:A I
*CAP
1 inst_221:ZN 0.0166
2 inst_236:A 0.0166
3 net_826:1 0.0152
4 net_826:2 0.0347
5 net_826:3 0.0347
6 net_826:4 0.0195
7 net_826:5 0.0195
*RES
2 inst_221:ZN net_826:5 0.0050
3 net_826:1 inst_236:A 0.0050
4 net_826:2 net_826:1 0.0050
5 net_826:3 net_826:2 0.0020
6 net_826:4 net_826:3 0.0050
7 net_826:4 net_826:5 0.0010
*END

*D_NET net_439 1.1941
*CONN
*I inst_121:ZN O
*I inst_1003:A I
*I inst_759:A2 I
*I inst_1127:A2 I
*I inst_522:A2 I
*CAP
1 inst_121:ZN 0.0166
2 inst_1003:A 0.0072
3 inst_759:A2 0.0166
4 inst_1127:A2 0.0166
5 inst_522:A2 0.0166
6 net_439:1 0.0155
7 net_439:2 0.0685
8 net_439:3 0.0685
9 net_439:4 0.0381
10 net_439:5 0.0381
11 net_439:6 0.0426
12 net_439:7 0.0597
13 net_439:8 0.0285
14 net_439:9 0.0572
15 net_439:10 0.1290
16 net_439:11 0.0820
17 net_439:12 0.0103
18 net_439:13 0.0176
19 net_439:14 0.0176
20 net_439:15 0.0334
21 net_439:16 0.0334
22 net_439:17 0.0345
23 net_439:18 0.0345
24 net_439:19 0.0212
25 net_439:20 0.0212
26 net_439:21 0.1346
27 net_439:22 0.1346
*RES
2 net_439:1 inst_1003:A 0.0010
3 net_439:2 net_439:1 0.0050
4 net_439:2 net_439:3 0.0065
5 net_439:4 net_439:3 0.0050
6 net_439:5 net_439:4 0.0027
7 net_439:6 net_439:5 0.0050
8 net_439:6 net_439:7 0.0035
9 net_439:7 inst_759:A2 0.0050
10 net_439:7 net_439:8 0.0020
11 net_439:9 net_439:8 0.0050
12 net_439:10 net_439:9 0.0041
13 net_439:10 net_439:16 0.0050
14 net_439:11 net_439:10 0.0065
15 net_439:12 net_439:11 0.0010
16 net_439:12 net_439:13 0.0050
17 net_439:14 inst_1127:A2 0.0050
18 net_439:14 net_439:13 0.0010
19 net_439:15 inst_522:A2 0.0050
20 net_439:15 net_439:16 0.0025
21 net_439:17 inst_121:ZN 0.0050
22 net_439:18 net_439:17 0.0020
23 net_439:19 net_439:18 0.0050
24 net_439:20 net_439:19 0.0011
25 net_439:21 net_439:20 0.0050
26 net_439:22 net_439:11 0.0050
27 net_439:22 net_439:21 0.0050
*END

*D_NET net_259 0.9477
*CONN
*I inst_875:Z O
*I inst_4:B I
*I inst_18:A I
*I inst_565:A1 I
*CAP
1 inst_875:Z 0.0166
2 inst_4:B 0.0166
3 inst_18:A 0.0332
4 inst_565:A1 0.0166
5 net_259:1 0.0644
6 net_259:2 0.0484
7 net_259:3 0.0833
8 net_259:4 0.0833
9 net_259:5 0.0291
10 net_259:6 0.0291
11 net_259:7 0.0152
12 net_259:8 0.0116
13 net_259:9 0.0116
14 net_259:10 0.0675
15 net_259:11 0.0675
16 net_259:12 0.0272
17 net_259:13 0.0272
18 net_259:14 0.0648
19 net_259:15 0.0648
20 net_259:16 0.0786
21 net_259:17 0.0908
*RES
2 inst_18:A net_259:15 0.0050
3 net_259:1 inst_4:B 0.0050
4 net_259:1 net_259:2 0.0050
5 net_259:2 net_259:3 0.0050
6 net_259:4 net_259:3 0.0041
7 net_259:4 net_259:5 0.0050
8 net_259:5 net_259:6 0.0015
9 net_259:6 inst_565:A1 0.0050
10 net_259:7 inst_875:Z 0.0050
11 net_259:8 net_259:7 0.0050
12 net_259:9 net_259:8 0.0010
13 net_259:10 net_259:9 0.0050
14 net_259:10 net_259:11 0.0023
15 net_259:12 net_259:11 0.0050
16 net_259:13 net_259:12 0.0011
17 net_259:14 net_259:13 0.0050
18 net_259:14 net_259:15 0.0075
19 net_259:16 inst_18:A 0.0050
20 net_259:16 net_259:17 0.0055
21 net_259:17 net_259:1 0.0014
*END

*D_NET net_548 0.7182
*CONN
*I inst_446:ZN O
*I inst_1129:A2 I
*I inst_777:A2 I
*I inst_1141:A1 I
*CAP
1 inst_446:ZN 0.0460
2 inst_1129:A2 0.0166
3 inst_777:A2 0.0166
4 inst_1141:A1 0.0294
5 net_548:1 0.0597
6 net_548:2 0.0534
7 net_548:3 0.0700
8 net_548:4 0.0700
9 net_548:5 0.0555
10 net_548:6 0.0555
11 net_548:7 0.0152
12 net_548:8 0.1063
13 net_548:9 0.1063
14 net_548:10 0.0176
*RES
2 inst_446:ZN inst_1141:A1 0.0041
3 net_548:1 inst_1129:A2 0.0050
4 net_548:1 net_548:10 0.0010
5 net_548:2 net_548:1 0.0035
6 net_548:2 net_548:3 0.0050
7 net_548:3 net_548:4 0.0081
8 net_548:4 net_548:5 0.0050
9 net_548:6 inst_446:ZN 0.0050
10 net_548:6 net_548:5 0.0050
11 net_548:7 inst_777:A2 0.0050
12 net_548:8 net_548:7 0.0050
13 net_548:8 net_548:9 0.0081
14 net_548:10 net_548:9 0.0050
*END

*D_NET n333 1.9099
*CONN
*I inst_286:ZN O
*P n333 O
*CAP
1 n333 0.0130
2 inst_286:ZN 0.0076
3 n333:1 0.0201
4 n333:2 0.0797
5 n333:3 0.0797
6 n333:4 0.0103
7 n333:5 0.0103
8 n333:6 0.0177
9 n333:7 0.0141
10 n333:8 0.5527
11 n333:9 0.5527
12 n333:10 0.2362
13 n333:11 0.2362
14 n333:12 0.0185
15 n333:13 0.0185
16 n333:14 0.0111
17 n333:15 0.0111
18 n333:16 0.0206
*RES
2 inst_286:ZN n333:1 0.0010
3 n333:2 n333:1 0.0050
4 n333:3 n333:2 0.0050
5 n333:4 n333:3 0.0050
6 n333:5 n333:4 0.0010
7 n333:6 n333:5 0.0050
8 n333:7 n333:6 0.0030
9 n333:8 n333:7 0.0030
10 n333:9 n333:8 0.0244
11 n333:10 n333:9 0.0030
12 n333:10 n333:11 0.0092
13 n333:12 n333:11 0.0030
14 n333:13 n333:12 0.0010
15 n333:14 n333:13 0.0050
16 n333:14 n333:15 0.0010
17 n333:16 n333 0.0010
18 n333:16 n333:15 0.0050
*END

*D_NET net_501 0.3219
*CONN
*I inst_740:ZN O
*I inst_452:A1 I
*I inst_588:A2 I
*CAP
1 inst_740:ZN 0.0155
2 inst_452:A1 0.0166
3 inst_588:A2 0.0166
4 net_501:1 0.0152
5 net_501:2 0.0288
6 net_501:3 0.0288
7 net_501:4 0.0152
8 net_501:5 0.0160
9 net_501:6 0.0161
10 net_501:7 0.0228
11 net_501:8 0.0228
12 net_501:9 0.0331
13 net_501:10 0.0331
14 net_501:11 0.0206
15 net_501:12 0.0206
*RES
2 inst_740:ZN net_501:6 0.0010
3 inst_740:ZN net_501:5 0.0010
4 inst_452:A1 net_501:12 0.0050
5 net_501:1 inst_588:A2 0.0050
6 net_501:2 net_501:1 0.0050
7 net_501:3 net_501:2 0.0020
8 net_501:4 net_501:3 0.0050
9 net_501:5 net_501:4 0.0050
10 net_501:7 net_501:6 0.0050
11 net_501:8 net_501:7 0.0020
12 net_501:9 net_501:8 0.0050
13 net_501:9 net_501:10 0.0020
14 net_501:11 net_501:10 0.0050
15 net_501:12 net_501:11 0.0010
*END

*D_NET n560 2.4040
*CONN
*I inst_1048:Z O
*P n560 O
*CAP
1 n560 0.0018
2 inst_1048:Z 0.0074
3 n560:1 0.0199
4 n560:2 0.4635
5 n560:3 0.4635
6 n560:4 0.6800
7 n560:5 0.6838
8 n560:6 0.0123
9 n560:7 0.0123
10 n560:8 0.0232
11 n560:9 0.0232
12 n560:10 0.0132
*RES
2 inst_1048:Z n560:1 0.0010
3 n560:2 n560:1 0.0050
4 n560:2 n560:3 0.0320
5 n560:4 n560:3 0.0050
6 n560:4 n560:5 0.0487
7 n560:6 n560:5 0.0050
8 n560:6 n560:7 0.0010
9 n560:8 n560:7 0.0050
10 n560:8 n560:9 0.0014
11 n560:10 n560 0.0010
12 n560:10 n560:9 0.0050
*END

*D_NET n2230 6.1656
*CONN
*P n2230 I
*I inst_1071:A I
*I inst_924:A I
*I inst_861:A I
*I inst_138:B I
*CAP
1 n2230 0.0130
2 inst_1071:A 0.0166
3 inst_924:A 0.0072
4 inst_861:A 0.0166
5 inst_138:B 0.0166
6 n2230:1 0.0152
7 n2230:2 0.0172
8 n2230:3 0.0172
9 n2230:4 0.1836
10 n2230:5 0.1836
11 n2230:6 0.0141
12 n2230:7 0.0792
13 n2230:8 0.0792
14 n2230:9 0.7124
15 n2230:10 0.7124
16 n2230:11 0.1437
17 n2230:12 0.1437
18 n2230:13 0.2059
19 n2230:14 0.2059
20 n2230:15 0.0177
21 n2230:16 0.1206
22 n2230:17 0.1206
23 n2230:18 0.0377
24 n2230:19 0.0809
25 n2230:20 0.0546
26 n2230:21 0.0391
27 n2230:22 0.0391
28 n2230:23 0.0224
29 n2230:24 0.0155
30 n2230:25 0.0688
31 n2230:26 0.0985
32 n2230:27 0.0374
33 n2230:28 0.2553
34 n2230:29 0.2553
35 n2230:30 0.0186
36 n2230:31 0.0206
37 n2230:32 0.0206
38 n2230:33 1.0324
39 n2230:34 1.0269
*RES
2 n2230 n2230:31 0.0010
3 n2230:1 inst_1071:A 0.0050
4 n2230:2 n2230:1 0.0050
5 n2230:3 n2230:2 0.0010
6 n2230:4 n2230:3 0.0050
7 n2230:5 n2230:4 0.0042
8 n2230:6 n2230:5 0.0030
9 n2230:7 n2230:6 0.0030
10 n2230:8 n2230:7 0.0042
11 n2230:9 n2230:8 0.0030
12 n2230:10 n2230:9 0.0025
13 n2230:11 n2230:10 0.0030
14 n2230:12 n2230:11 0.0034
15 n2230:13 n2230:12 0.0030
16 n2230:14 n2230:13 0.0050
17 n2230:15 n2230:14 0.0030
18 n2230:16 n2230:15 0.0050
19 n2230:17 n2230:16 0.0100
20 n2230:18 n2230:17 0.0050
21 n2230:19 n2230:18 0.0025
22 n2230:19 n2230:24 0.0050
23 n2230:20 n2230:19 0.0050
24 n2230:21 n2230:20 0.0050
25 n2230:22 n2230:21 0.0020
26 n2230:23 inst_138:B 0.0050
27 n2230:23 n2230:22 0.0050
28 n2230:24 inst_924:A 0.0010
29 n2230:25 inst_861:A 0.0050
30 n2230:25 n2230:26 0.0055
31 n2230:26 n2230:27 0.0020
32 n2230:27 n2230:28 0.0050
33 n2230:28 n2230:29 0.0176
34 n2230:29 n2230:30 0.0050
35 n2230:30 n2230:23 0.0010
36 n2230:32 n2230:31 0.0050
37 n2230:32 n2230:33 0.0010
38 n2230:33 n2230:34 0.0760
39 n2230:34 n2230:26 0.0050
*END

*D_NET net_187 0.8132
*CONN
*I inst_1111:ZN O
*I inst_355:A2 I
*CAP
1 inst_1111:ZN 0.0076
2 inst_355:A2 0.0172
3 net_187:1 0.0159
4 net_187:2 0.0707
5 net_187:3 0.0707
6 net_187:4 0.0128
7 net_187:5 0.0128
8 net_187:6 0.0177
9 net_187:7 0.0675
10 net_187:8 0.0675
11 net_187:9 0.1818
12 net_187:10 0.1818
13 net_187:11 0.0141
14 net_187:12 0.0141
15 net_187:13 0.0178
16 net_187:14 0.0178
17 net_187:15 0.0255
*RES
2 inst_1111:ZN net_187:1 0.0010
3 net_187:2 net_187:1 0.0050
4 net_187:3 net_187:2 0.0090
5 net_187:4 net_187:3 0.0050
6 net_187:4 net_187:5 0.0010
7 net_187:6 net_187:5 0.0050
8 net_187:7 net_187:6 0.0030
9 net_187:7 net_187:8 0.0021
10 net_187:9 net_187:8 0.0030
11 net_187:10 net_187:9 0.0036
12 net_187:11 net_187:10 0.0050
13 net_187:11 net_187:12 0.0010
14 net_187:13 net_187:12 0.0050
15 net_187:14 net_187:13 0.0010
16 net_187:15 inst_355:A2 0.0019
17 net_187:15 net_187:14 0.0050
*END

*D_NET net_111 1.0732
*CONN
*I inst_937:ZN O