*SPEF "IEEE 1481-1998"
*DESIGN "changes"
*DATE "Tue Dec 02 20:45:19 2014"
*VENDOR "TAU 2015 Contest"
*PROGRAM "Benchmark Parasitic Generator"
*VERSION "0.0"
*DESIGN_FLOW "NETLIST_TYPE_VERILOG"
*DIVIDER /
*DELIMITER :
*BUS_DELIMITER [ ]
*T_UNIT 1 PS
*C_UNIT 1 FF
*R_UNIT 1 KOHM
*L_UNIT 1 UH

*D_NET n2230 5.2605
*CONN
*P n2230 I
*I inst_861:A I
*I inst_138:B I
*I inst_924:A I
*I inst_1071:A I
*CAP
1 n2230 0.2611
2 n2230:1 0.4098
3 n2230:2 0.5009
4 n2230:3 0.2843
5 inst_138:B 0.2878
6 n2230:4 0.4685
7 n2230:5 0.3070
8 n2230:6 0.3583
9 inst_861:A 0.1395
10 n2230:7 0.4644
11 n2230:8 0.4559
12 n2230:9 0.4050
13 n2230:10 0.0154
14 inst_924:A 0.1670
15 n2230:11 0.2909
16 n2230:12 0.3706
17 inst_1071:A 0.0740
*RES
2 n2230 n2230:1 0.1659
3 n2230:1 n2230:2 0.2742
4 n2230:2 n2230:3 0.3494
5 n2230:3 inst_138:B 0.1485
6 n2230:3 n2230:4 0.0646
7 n2230:4 n2230:5 0.0794
8 n2230:5 n2230:6 0.2161
9 n2230:6 inst_861:A 0.1614
10 n2230:4 n2230:7 0.1555
11 n2230:7 n2230:8 0.2440
12 n2230:8 n2230:9 0.0332
13 n2230:9 n2230:10 0.0406
14 n2230:10 inst_924:A 0.2732
15 n2230:3 n2230:11 0.4871
16 n2230:11 n2230:12 0.4951
17 n2230:12 inst_1071:A 0.4125
*END

*D_NET net_912 0.8718
*CONN
*I inst_252:ZN O
*I inst_261:B I
*CAP
1 inst_252:ZN 0.1285
2 net_912:1 0.2926
3 inst_261:B 0.4507
*RES
2 inst_252:ZN net_912:1 0.3356
3 net_912:1 inst_261:B 0.3995
*END

*D_NET net_989 4.8909
*CONN
*I inst_114:ZN O
*I inst_298:A I
*I inst_271:A I
*I inst_267:A I
*I inst_996:A I
*CAP
1 inst_114:ZN 0.4708
2 net_989:1 0.3464
3 net_989:2 0.0305
4 net_989:3 0.2383
5 net_989:4 0.4020
6 inst_996:A 0.2529
7 net_989:5 0.0716
8 net_989:6 0.2236
9 net_989:7 0.1922
10 net_989:8 0.2805
11 inst_271:A 0.1322
12 net_989:9 0.2211
13 net_989:10 0.1955
14 net_989:11 0.1868
15 net_989:12 0.4889
16 inst_267:A 0.0703
17 net_989:13 0.4035
18 net_989:14 0.0219
19 net_989:15 0.0830
20 net_989:16 0.4539
21 inst_298:A 0.1250
*RES
2 inst_114:ZN net_989:1 0.2665
3 net_989:1 net_989:2 0.4354
4 net_989:2 net_989:3 0.1977
5 net_989:3 net_989:4 0.0788
6 net_989:4 inst_996:A 0.3276
7 net_989:4 net_989:5 0.1905
8 net_989:5 net_989:6 0.4017
9 net_989:6 net_989:7 0.4680
10 net_989:7 net_989:8 0.2976
11 net_989:8 inst_271:A 0.2331
12 net_989:5 net_989:9 0.3298
13 net_989:9 net_989:10 0.4131
14 net_989:10 net_989:11 0.3310
15 net_989:11 net_989:12 0.2621
16 net_989:12 inst_267:A 0.4792
17 net_989:2 net_989:13 0.3196
18 net_989:13 net_989:14 0.4976
19 net_989:14 net_989:15 0.3591
20 net_989:15 net_989:16 0.2780
21 net_989:16 inst_298:A 0.2022
*END

*D_NET net_777 2.5322
*CONN
*I inst_213:ZN O
*I inst_226:B I
*CAP
1 inst_213:ZN 0.4382
2 net_777:1 0.4055
3 net_777:2 0.4519
4 net_777:3 0.4658
5 net_777:4 0.3690
6 inst_226:B 0.4019
*RES
2 inst_213:ZN net_777:1 0.0632
3 net_777:1 net_777:2 0.2503
4 net_777:2 net_777:3 0.4700
5 net_777:3 net_777:4 0.3789
6 net_777:4 inst_226:B 0.3545
*END

*D_NET net_249 1.0398
*CONN
*I inst_425:ZN O
*I inst_347:A3 I
*CAP
1 inst_425:ZN 0.4316
2 net_249:1 0.4734
3 net_249:2 0.0376
4 inst_347:A3 0.0972
*RES
2 inst_425:ZN net_249:1 0.3594
3 net_249:1 net_249:2 0.0525
4 net_249:2 inst_347:A3 0.3248
*END

