*SPEF "IEEE 1481-1998"
*DESIGN "changes"
*DATE "Tue Dec 02 20:45:16 2014"
*VENDOR "TAU 2015 Contest"
*PROGRAM "Benchmark Parasitic Generator"
*VERSION "0.0"
*DESIGN_FLOW "NETLIST_TYPE_VERILOG"
*DIVIDER /
*DELIMITER :
*BUS_DELIMITER [ ]
*T_UNIT 1 PS
*C_UNIT 1 FF
*R_UNIT 1 KOHM
*L_UNIT 1 UH

*D_NET TAUNET_13 1.7439
*CONN
*I inst_312:ZN O
*I TAUGATE_13:A I
*CAP
1 inst_312:ZN 0.2611
2 TAUNET_13:1 0.4098
3 TAUNET_13:2 0.5009
4 TAUNET_13:3 0.2843
5 TAUGATE_13:A 0.2878
*RES
2 inst_312:ZN TAUNET_13:1 0.1659
3 TAUNET_13:1 TAUNET_13:2 0.2742
4 TAUNET_13:2 TAUNET_13:3 0.3494
5 TAUNET_13:3 TAUGATE_13:A 0.1485
*END

*D_NET TAUNET_12 1.3760
*CONN
*I inst_527:ZN O
*I TAUGATE_12:A I
*CAP
1 inst_527:ZN 0.2110
2 TAUNET_12:1 0.3070
3 TAUNET_12:2 0.3583
4 TAUNET_12:3 0.1395
5 TAUNET_12:4 0.0646
6 TAUNET_12:5 0.0794
7 TAUGATE_12:A 0.2161
*RES
2 inst_527:ZN TAUNET_12:1 0.1614
3 TAUNET_12:1 TAUNET_12:2 0.3312
4 TAUNET_12:2 TAUNET_12:3 0.3755
5 TAUNET_12:3 TAUNET_12:4 0.4644
6 TAUNET_12:4 TAUNET_12:5 0.4559
7 TAUNET_12:5 TAUGATE_12:A 0.4050
*END

*D_NET net_137 1.9117
*CONN
*I TAUGATE_57:Z O
*I inst_704:A2 I
*I inst_685:A2 I
*CAP
1 TAUGATE_57:Z 0.1670
2 net_137:1 0.2440
3 net_137:2 0.0332
4 inst_704:A2 0.0406
5 net_137:3 0.3706
6 net_137:4 0.0740
7 net_137:5 0.4871
8 inst_685:A2 0.4951
*RES
2 TAUGATE_57:Z net_137:1 0.2732
3 net_137:1 net_137:2 0.0073
4 net_137:2 inst_704:A2 0.1308
5 net_137:1 net_137:3 0.4125
6 net_137:3 net_137:4 0.0565
7 net_137:4 net_137:5 0.1285
8 net_137:5 inst_685:A2 0.0292
*END

*D_NET n201 2.3577
*CONN
*I TAUGATE_31:Z O
*I inst_639:A2 I
*CAP
1 TAUGATE_31:Z 0.4507
2 n201:1 0.3995
3 n201:2 0.3845
4 n201:3 0.4708
5 n201:4 0.3056
6 inst_639:A2 0.3464
*RES
2 TAUGATE_31:Z n201:1 0.0305
3 n201:1 n201:2 0.2383
4 n201:2 n201:3 0.4020
5 n201:3 n201:4 0.2529
6 n201:4 inst_639:A2 0.2665
*END

*D_NET net_132 1.5117
*CONN
*I TAUGATE_42:Z O
*I inst_728:A2 I
*I inst_683:A2 I
*CAP
1 TAUGATE_42:Z 0.1977
2 net_132:1 0.3276
3 inst_683:A2 0.3833
4 net_132:2 0.2805
5 net_132:3 0.1322
6 inst_728:A2 0.1905
*RES
2 TAUGATE_42:Z net_132:1 0.3292
3 net_132:1 inst_683:A2 0.0716
4 net_132:1 net_132:2 0.4017
5 net_132:2 net_132:3 0.4680
6 net_132:3 inst_728:A2 0.2976
*END

*D_NET TAUNET_35 1.4553
*CONN
*I inst_54:Z O
*I TAUGATE_35:A I
*CAP
1 inst_54:Z 0.2927
2 TAUNET_35:1 0.2211
3 TAUNET_35:2 0.1955
4 TAUNET_35:3 0.1868
5 TAUNET_35:4 0.4889
6 TAUGATE_35:A 0.0703
*RES
2 inst_54:Z TAUNET_35:1 0.3298
3 TAUNET_35:1 TAUNET_35:2 0.4131
4 TAUNET_35:2 TAUNET_35:3 0.3310
5 TAUNET_35:3 TAUNET_35:4 0.2621
6 TAUNET_35:4 TAUGATE_35:A 0.4792
*END

*D_NET net_351 4.2111
*CONN
*I TAUGATE_38:Z O
*I inst_969:A I
*I inst_128:A I
*I inst_54:B I
*CAP
1 TAUGATE_38:Z 0.0717
2 net_351:1 0.4035
3 net_351:2 0.0219
4 net_351:3 0.0830
5 net_351:4 0.4539
6 inst_128:A 0.1250
7 net_351:5 0.3498
8 net_351:6 0.4055
9 net_351:7 0.4519
10 net_351:8 0.4658
11 net_351:9 0.3690
12 inst_969:A 0.4019
13 net_351:10 0.4734
14 net_351:11 0.0376
15 inst_54:B 0.0972
*RES
2 TAUGATE_38:Z net_351:1 0.3196
3 net_351:1 net_351:2 0.4976
4 net_351:2 net_351:3 0.3591
5 net_351:3 net_351:4 0.2780
6 net_351:4 inst_128:A 0.2022
7 net_351:1 net_351:5 0.0632
8 net_351:5 net_351:6 0.2503
9 net_351:6 net_351:7 0.4700
10 net_351:7 net_351:8 0.3789
11 net_351:8 net_351:9 0.3545
12 net_351:9 inst_969:A 0.1033
13 net_351:9 net_351:10 0.3594
14 net_351:10 net_351:11 0.0525
15 net_351:11 inst_54:B 0.3248
*END

*D_NET net_216 4.6100
*CONN
*I TAUGATE_50:Z O
*I inst_9:B I
*I inst_314:A2 I
*I inst_533:A2 I
*I inst_736:A2 I
*CAP
1 TAUGATE_50:Z 0.1267
2 net_216:1 0.2434
3 net_216:2 0.3726
4 net_216:3 0.2980
5 net_216:4 0.2454
6 inst_533:A2 0.4670
7 net_216:5 0.3699
8 inst_314:A2 0.4131
9 net_216:6 0.0282
10 net_216:7 0.3089
11 net_216:8 0.0253
12 net_216:9 0.3105
13 inst_9:B 0.1881
14 net_216:10 0.3580
15 net_216:11 0.3774
16 net_216:12 0.2731
17 net_216:13 0.1525
18 inst_736:A2 0.0518
*RES
2 TAUGATE_50:Z net_216:1 0.1921
3 net_216:1 net_216:2 0.1376
4 net_216:2 net_216:3 0.4443
5 net_216:3 net_216:4 0.1288
6 net_216:4 inst_533:A2 0.3022
7 net_216:1 net_216:5 0.4004
8 net_216:5 inst_314:A2 0.4814
9 net_216:2 net_216:6 0.2034
10 net_216:6 net_216:7 0.1592
11 net_216:7 net_216:8 0.3147
12 net_216:8 net_216:9 0.2761
13 net_216:9 inst_9:B 0.3643
14 net_216:1 net_216:10 0.2548
15 net_216:10 net_216:11 0.2154
16 net_216:11 net_216:12 0.4921
17 net_216:12 net_216:13 0.1648
18 net_216:13 inst_736:A2 0.1855
*END

*D_NET net_978 1.0916
*CONN
*I TAUGATE_40:Z O
*I inst_300:A I
*CAP
1 TAUGATE_40:Z 0.3530
2 net_978:1 0.2239
3 net_978:2 0.0917
4 inst_300:A 0.4230
*RES
2 TAUGATE_40:Z net_978:1 0.1494
3 net_978:1 net_978:2 0.3290
4 net_978:2 inst_300:A 0.1620
*END

*D_NET TAUNET_46 1.1549
*CONN
*I inst_1045:ZN O
*I TAUGATE_46:A I
*CAP
1 inst_1045:ZN 0.2883
2 TAUNET_46:1 0.4381
3 TAUNET_46:2 0.3484
4 TAUGATE_46:A 0.0801
*RES
2 inst_1045:ZN TAUNET_46:1 0.1392
3 TAUNET_46:1 TAUNET_46:2 0.1891
4 TAUNET_46:2 TAUGATE_46:A 0.0464
*END

*D_NET net_93 1.0649
*CONN
*I TAUGATE_13:Z O
*I inst_709:A2 I
*CAP
1 TAUGATE_13:Z 0.0279
2 net_93:1 0.0649
3 net_93:2 0.0510
4 net_93:3 0.1600
5 net_93:4 0.1748
6 net_93:5 0.4787
7 inst_709:A2 0.1076
*RES
2 TAUGATE_13:Z net_93:1 0.4606
3 net_93:1 net_93:2 0.3388
4 net_93:2 net_93:3 0.4657
5 net_93:3 net_93:4 0.3595
6 net_93:4 net_93:5 0.2471
7 net_93:5 inst_709:A2 0.0832
*END

*D_NET TAUNET_24 0.8209
*CONN
*I inst_650:ZN O
*I TAUGATE_24:A I
*CAP
1 inst_650:ZN 0.3736
2 TAUNET_24:1 0.3644
3 TAUGATE_24:A 0.0829
*RES
2 inst_650:ZN TAUNET_24:1 0.1977
3 TAUNET_24:1 TAUGATE_24:A 0.4694
*END

*D_NET n292 3.8144
*CONN
*I TAUGATE_16:Z O
*P n292 O
*I inst_1093:A I
*CAP
1 TAUGATE_16:Z 0.3882
2 n292:1 0.0413
3 n292:2 0.4651
4 n292:3 0.4065
5 n292:4 0.3164
6 n292:5 0.3513
7 inst_1093:A 0.1165
8 n292:6 0.2613
9 n292:7 0.3587
10 n292:8 0.1869
11 n292:9 0.4974
12 n292:10 0.3047
13 n292 0.1200
*RES
2 TAUGATE_16:Z n292:1 0.0986
3 n292:1 n292:2 0.2243
4 n292:2 n292:3 0.1286
5 n292:3 n292:4 0.4269
6 n292:4 n292:5 0.2482
7 n292:5 inst_1093:A 0.2195
8 n292:2 n292:6 0.4969
9 n292:6 n292:7 0.1210
10 n292:7 n292:8 0.1733
11 n292:8 n292:9 0.1014
12 n292:9 n292:10 0.0283
13 n292:10 n292 0.2763
*END

*D_NET net_974 1.7303
*CONN
*I TAUGATE_48:Z O
*I inst_1143:A2 I
*I inst_511:A2 I
*CAP
1 TAUGATE_48:Z 0.3177
2 net_974:1 0.3390
3 net_974:2 0.2046
4 net_974:3 0.3404
5 inst_511:A2 0.1317
6 net_974:4 0.1253
7 inst_1143:A2 0.2716
*RES
2 TAUGATE_48:Z net_974:1 0.3617
3 net_974:1 net_974:2 0.0856
4 net_974:2 net_974:3 0.3629
5 net_974:3 inst_511:A2 0.2821
6 net_974:3 net_974:4 0.3735
7 net_974:4 inst_1143:A2 0.1079
*END

*D_NET TAUNET_16 1.1974
*CONN
*I inst_556:ZN O
*I TAUGATE_16:A I
*CAP
1 inst_556:ZN 0.2907
2 TAUNET_16:1 0.4966
3 TAUGATE_16:A 0.4101
*RES
2 inst_556:ZN TAUNET_16:1 0.2702
3 TAUNET_16:1 TAUGATE_16:A 0.2135
*END

*D_NET TAUNET_31 0.7859
*CONN
*P n201 I
*I TAUGATE_31:A I
*CAP
1 n201 0.2773
2 TAUNET_31:1 0.0485
3 TAUGATE_31:A 0.4602
*RES
2 n201 TAUNET_31:1 0.4262
3 TAUNET_31:1 TAUGATE_31:A 0.2009
*END

*D_NET TAUNET_25 1.7519
*CONN
*P n199 I
*I TAUGATE_25:A I
*CAP
1 n199 0.3090
2 TAUNET_25:1 0.4228
3 TAUNET_25:2 0.2443
4 TAUNET_25:3 0.2458
5 TAUNET_25:4 0.3734
6 TAUGATE_25:A 0.1567
*RES
2 n199 TAUNET_25:1 0.1247
3 TAUNET_25:1 TAUNET_25:2 0.2439
4 TAUNET_25:2 TAUNET_25:3 0.2588
5 TAUNET_25:3 TAUNET_25:4 0.4474
6 TAUNET_25:4 TAUGATE_25:A 0.3528
*END

*D_NET TAUNET_27 1.1906
*CONN
*I inst_850:ZN O
*I TAUGATE_27:A I
*CAP
1 inst_850:ZN 0.4436
2 TAUNET_27:1 0.3275
3 TAUNET_27:2 0.0169
4 TAUGATE_27:A 0.4026
*RES
2 inst_850:ZN TAUNET_27:1 0.4684
3 TAUNET_27:1 TAUNET_27:2 0.2490
4 TAUNET_27:2 TAUGATE_27:A 0.0579
*END

*D_NET TAUNET_28 2.1415
*CONN
*I inst_570:ZN O
*I TAUGATE_28:A I
*CAP
1 inst_570:ZN 0.2861
2 TAUNET_28:1 0.3875
3 TAUNET_28:2 0.4796
4 TAUNET_28:3 0.3740
5 TAUNET_28:4 0.1554
6 TAUNET_28:5 0.0209
7 TAUGATE_28:A 0.4380
*RES
2 inst_570:ZN TAUNET_28:1 0.4130
3 TAUNET_28:1 TAUNET_28:2 0.4990
4 TAUNET_28:2 TAUNET_28:3 0.2134
5 TAUNET_28:3 TAUNET_28:4 0.1115
6 TAUNET_28:4 TAUNET_28:5 0.4947
7 TAUNET_28:5 TAUGATE_28:A 0.3666
*END

*D_NET TAUNET_57 1.7795
*CONN
*I inst_655:ZN O
*I TAUGATE_57:A I
*CAP
1 inst_655:ZN 0.4464
2 TAUNET_57:1 0.2969
3 TAUNET_57:2 0.3091
4 TAUNET_57:3 0.5006
5 TAUGATE_57:A 0.2264
*RES
2 inst_655:ZN TAUNET_57:1 0.3973
3 TAUNET_57:1 TAUNET_57:2 0.2044
4 TAUNET_57:2 TAUNET_57:3 0.1531
5 TAUNET_57:3 TAUGATE_57:A 0.3886
*END

*D_NET TAUNET_37 1.3806
*CONN
*I inst_203:ZN O
*I TAUGATE_37:A I
*CAP
1 inst_203:ZN 0.2468
2 TAUNET_37:1 0.3652
3 TAUNET_37:2 0.1857
4 TAUNET_37:3 0.0562
5 TAUNET_37:4 0.0882
6 TAUGATE_37:A 0.4386
*RES
2 inst_203:ZN TAUNET_37:1 0.2715
3 TAUNET_37:1 TAUNET_37:2 0.0199
4 TAUNET_37:2 TAUNET_37:3 0.4145
5 TAUNET_37:3 TAUNET_37:4 0.1459
6 TAUNET_37:4 TAUGATE_37:A 0.1130
*END

*D_NET TAUNET_32 0.5758
*CONN
*I inst_192:ZN O
*I TAUGATE_32:A I
*CAP
1 inst_192:ZN 0.1939
2 TAUNET_32:1 0.0212
3 TAUNET_32:2 0.1417
4 TAUGATE_32:A 0.2190
*RES
2 inst_192:ZN TAUNET_32:1 0.4826
3 TAUNET_32:1 TAUNET_32:2 0.1138
4 TAUNET_32:2 TAUGATE_32:A 0.4033
*END

*D_NET TAUNET_38 0.6715
*CONN
*I inst_402:ZN O
*I TAUGATE_38:A I
*CAP
1 inst_402:ZN 0.2540
2 TAUNET_38:1 0.2388
3 TAUGATE_38:A 0.1787
*RES
2 inst_402:ZN TAUNET_38:1 0.3603
3 TAUNET_38:1 TAUGATE_38:A 0.0603
*END

*D_NET net_403 1.0565
*CONN
*I TAUGATE_41:Z O
*I inst_534:A3 I
*CAP
1 TAUGATE_41:Z 0.3102
2 net_403:1 0.2473
3 net_403:2 0.0055
4 inst_534:A3 0.4935
*RES
2 TAUGATE_41:Z net_403:1 0.2412
3 net_403:1 net_403:2 0.3995
4 net_403:2 inst_534:A3 0.4441
*END

*D_NET net_999 3.5079
*CONN
*I TAUGATE_29:Z O
*I inst_452:A2 I
*I inst_268:A I
*I inst_462:A1 I
*I inst_275:A I
*I inst_86:B I
*I inst_448:A2 I
*CAP
1 TAUGATE_29:Z 0.0848
2 net_999:1 0.0274
3 inst_448:A2 0.4218
4 net_999:2 0.4317
5 net_999:3 0.1801
6 net_999:4 0.2826
7 net_999:5 0.3420
8 inst_268:A 0.0965
9 net_999:6 0.0608
10 inst_462:A1 0.3721
11 net_999:7 0.0264
12 net_999:8 0.2502
13 inst_275:A 0.2506
14 net_999:9 0.2747
15 inst_86:B 0.1704
16 net_999:10 0.1278
17 inst_452:A2 0.1079
*RES
2 TAUGATE_29:Z net_999:1 0.2061
3 net_999:1 inst_448:A2 0.2110
4 net_999:1 net_999:2 0.2555
5 net_999:2 net_999:3 0.1304
6 net_999:3 net_999:4 0.3675
7 net_999:4 net_999:5 0.4634
8 net_999:5 inst_268:A 0.2869
9 net_999:1 net_999:6 0.4648
10 net_999:6 inst_462:A1 0.2376
11 net_999:5 net_999:7 0.4486
12 net_999:7 net_999:8 0.0641
13 net_999:8 inst_275:A 0.0138
14 net_999:4 net_999:9 0.2303
15 net_999:9 inst_86:B 0.0121
16 net_999:1 net_999:10 0.3621
17 net_999:10 inst_452:A2 0.1254
*END

*D_NET n560 1.8215
*CONN
*I TAUGATE_34:Z O
*P n560 O
*CAP
1 TAUGATE_34:Z 0.4751
2 n560:1 0.4748
3 n560:2 0.2505
4 n560:3 0.2036
5 n560:4 0.3990
6 n560 0.0185
*RES
2 TAUGATE_34:Z n560:1 0.3777
3 n560:1 n560:2 0.2437
4 n560:2 n560:3 0.3641
5 n560:3 n560:4 0.1411
6 n560:4 n560 0.2452
*END

*D_NET net_1035 0.3707
*CONN
*I TAUGATE_19:Z O
*I inst_917:A I
*CAP
1 TAUGATE_19:Z 0.2079
2 net_1035:1 0.0406
3 net_1035:2 0.0917
4 net_1035:3 0.0078
5 inst_917:A 0.0227
*RES
2 TAUGATE_19:Z net_1035:1 0.0264
3 net_1035:1 net_1035:2 0.0174
4 net_1035:2 net_1035:3 0.1906
5 net_1035:3 inst_917:A 0.1553
*END

*D_NET TAUNET_40 1.3954
*CONN
*I inst_906:Z O
*I TAUGATE_40:A I
*CAP
1 inst_906:Z 0.2944
2 TAUNET_40:1 0.0209
3 TAUNET_40:2 0.1182
4 TAUNET_40:3 0.1067
5 TAUNET_40:4 0.4881
6 TAUGATE_40:A 0.3672
*RES
2 inst_906:Z TAUNET_40:1 0.4629
3 TAUNET_40:1 TAUNET_40:2 0.1157
4 TAUNET_40:2 TAUNET_40:3 0.1901
5 TAUNET_40:3 TAUNET_40:4 0.2138
6 TAUNET_40:4 TAUGATE_40:A 0.5008
*END

*D_NET TAUNET_20 1.2604
*CONN
*I inst_207:ZN O
*I TAUGATE_20:A I
*CAP
1 inst_207:ZN 0.3428
2 TAUNET_20:1 0.2733
3 TAUNET_20:2 0.1266
4 TAUNET_20:3 0.3814
5 TAUGATE_20:A 0.1363
*RES
2 inst_207:ZN TAUNET_20:1 0.3277
3 TAUNET_20:1 TAUNET_20:2 0.3144
4 TAUNET_20:2 TAUNET_20:3 0.4503
5 TAUNET_20:3 TAUGATE_20:A 0.3676
*END

*D_NET net_353 1.1878
*CONN
*I TAUGATE_35:Z O
*I inst_183:A I
*CAP
1 TAUGATE_35:Z 0.4423
2 net_353:1 0.4527
3 net_353:2 0.1465
4 inst_183:A 0.1463
*RES
2 TAUGATE_35:Z net_353:1 0.4621
3 net_353:1 net_353:2 0.4065
4 net_353:2 inst_183:A 0.0227
*END

*D_NET net_727 0.7521
*CONN
*I TAUGATE_32:Z O
*I inst_212:B I
*CAP
1 TAUGATE_32:Z 0.4114
2 net_727:1 0.1546
3 inst_212:B 0.1861
*RES
2 TAUGATE_32:Z net_727:1 0.4367
3 net_727:1 inst_212:B 0.3452
*END

*D_NET net_718 0.3052
*CONN
*I TAUGATE_56:Z O
*I inst_215:A I
*CAP
1 TAUGATE_56:Z 0.1217
2 net_718:1 0.1222
3 inst_215:A 0.0613
*RES
2 TAUGATE_56:Z net_718:1 0.1692
3 net_718:1 inst_215:A 0.4407
*END

*D_NET net_90 1.3881
*CONN
*I TAUGATE_39:Z O
*I inst_392:A2 I
*CAP
1 TAUGATE_39:Z 0.2563
2 net_90:1 0.2603
3 net_90:2 0.2874
4 net_90:3 0.3072
5 inst_392:A2 0.2768
*RES
2 TAUGATE_39:Z net_90:1 0.1679
3 net_90:1 net_90:2 0.2053
4 net_90:2 net_90:3 0.2140
5 net_90:3 inst_392:A2 0.3306
*END

*D_NET net_872 2.0736
*CONN
*I TAUGATE_46:Z O
*I inst_503:A2 I
*CAP
1 TAUGATE_46:Z 0.2580
2 net_872:1 0.4796
3 net_872:2 0.3806
4 net_872:3 0.4946
5 inst_503:A2 0.4608
*RES
2 TAUGATE_46:Z net_872:1 0.4692
3 net_872:1 net_872:2 0.4766
4 net_872:2 net_872:3 0.0589
5 net_872:3 inst_503:A2 0.0962
*END

*D_NET TAUNET_14 1.3235
*CONN
*I inst_149:ZN O
*I TAUGATE_14:A I
*CAP
1 inst_149:ZN 0.1750
2 TAUNET_14:1 0.0845
3 TAUNET_14:2 0.1888
4 TAUNET_14:3 0.1436
5 TAUNET_14:4 0.1762
6 TAUNET_14:5 0.4748
7 TAUGATE_14:A 0.0806
*RES
2 inst_149:ZN TAUNET_14:1 0.0407
3 TAUNET_14:1 TAUNET_14:2 0.2069
4 TAUNET_14:2 TAUNET_14:3 0.0491
5 TAUNET_14:3 TAUNET_14:4 0.4137
6 TAUNET_14:4 TAUNET_14:5 0.3046
7 TAUNET_14:5 TAUGATE_14:A 0.2987
*END

*D_NET n78 1.6284
*CONN
*I TAUGATE_15:Z O
*I inst_856:B I
*CAP
1 TAUGATE_15:Z 0.1831
2 n78:1 0.0191
3 n78:2 0.3538
4 n78:3 0.4300
5 n78:4 0.3629
6 n78:5 0.0787
7 inst_856:B 0.2007
*RES
2 TAUGATE_15:Z n78:1 0.2971
3 n78:1 n78:2 0.4025
4 n78:2 n78:3 0.5010
5 n78:3 n78:4 0.3538
6 n78:4 n78:5 0.4649
7 n78:5 inst_856:B 0.0482
*END

*D_NET net_719 1.9070
*CONN
*I TAUGATE_54:Z O
*I inst_817:A1 I
*CAP
1 TAUGATE_54:Z 0.2963
2 net_719:1 0.2002
3 net_719:2 0.2573
4 net_719:3 0.3761
5 net_719:4 0.0616
6 net_719:5 0.4298
7 inst_817:A1 0.2857
*RES
2 TAUGATE_54:Z net_719:1 0.2634
3 net_719:1 net_719:2 0.0470
4 net_719:2 net_719:3 0.0745
5 net_719:3 net_719:4 0.1738
6 net_719:4 net_719:5 0.4336
7 net_719:5 inst_817:A1 0.4556
*END

*D_NET n526 1.0764
*CONN
*I TAUGATE_53:Z O
*P n526 O
*CAP
1 TAUGATE_53:Z 0.0036
2 n526:1 0.2737
3 n526:2 0.3095
4 n526 0.4895
*RES
2 TAUGATE_53:Z n526:1 0.4033
3 n526:1 n526:2 0.2734
4 n526:2 n526 0.3461
*END

*D_NET net_991 2.4492
*CONN
*I TAUGATE_47:Z O
*I inst_513:A2 I
*I inst_1144:A2 I
*CAP
1 TAUGATE_47:Z 0.0418
2 net_991:1 0.3815
3 net_991:2 0.1458
4 net_991:3 0.4915
5 net_991:4 0.0683
6 inst_1144:A2 0.2135
7 net_991:5 0.3473
8 net_991:6 0.1114
9 net_991:7 0.0198
10 net_991:8 0.2366
11 net_991:9 0.1100
12 inst_513:A2 0.2818
*RES
2 TAUGATE_47:Z net_991:1 0.4484
3 net_991:1 net_991:2 0.1379
4 net_991:2 net_991:3 0.1139
5 net_991:3 net_991:4 0.0489
6 net_991:4 inst_1144:A2 0.0861
7 net_991:1 net_991:5 0.3290
8 net_991:5 net_991:6 0.1592
9 net_991:6 net_991:7 0.4236
10 net_991:7 net_991:8 0.3328
11 net_991:8 net_991:9 0.1906
12 net_991:9 inst_513:A2 0.5003
*END

*D_NET n442 1.0480
*CONN
*I TAUGATE_59:Z O
*P n442 O
*CAP
1 TAUGATE_59:Z 0.3044
2 n442:1 0.0096
3 n442:2 0.4963
4 n442 0.2377
*RES
2 TAUGATE_59:Z n442:1 0.2571
3 n442:1 n442:2 0.3610
4 n442:2 n442 0.0042
*END

*D_NET TAUNET_49 1.5525
*CONN
*I inst_626:ZN O
*I TAUGATE_49:A I
*CAP
1 inst_626:ZN 0.3841
2 TAUNET_49:1 0.2352
3 TAUNET_49:2 0.3112
4 TAUNET_49:3 0.1345
5 TAUNET_49:4 0.4134
6 TAUGATE_49:A 0.0741
*RES
2 inst_626:ZN TAUNET_49:1 0.4290
3 TAUNET_49:1 TAUNET_49:2 0.4891
4 TAUNET_49:2 TAUNET_49:3 0.0621
5 TAUNET_49:3 TAUNET_49:4 0.2122
6 TAUNET_49:4 TAUGATE_49:A 0.2034
*END

*D_NET net_973 0.9541
*CONN
*I TAUGATE_23:Z O
*I inst_851:A2 I
*CAP
1 TAUGATE_23:Z 0.2112
2 net_973:1 0.1106
3 net_973:2 0.0283
4 net_973:3 0.2644
5 inst_851:A2 0.3395
*RES
2 TAUGATE_23:Z net_973:1 0.4160
3 net_973:1 net_973:2 0.1311
4 net_973:2 net_973:3 0.1702
5 net_973:3 inst_851:A2 0.0535
*END

*D_NET net_565 1.0831
*CONN
*I TAUGATE_12:Z O
*I inst_544:A2 I
*CAP
1 TAUGATE_12:Z 0.2939
2 net_565:1 0.0520
3 net_565:2 0.1787
4 net_565:3 0.3277
5 inst_544:A2 0.2308
*RES
2 TAUGATE_12:Z net_565:1 0.1825
3 net_565:1 net_565:2 0.4154
4 net_565:2 net_565:3 0.4205
5 net_565:3 inst_544:A2 0.1921
*END

*D_NET net_149 2.5377
*CONN
*I TAUGATE_24:Z O
*I inst_722:A2 I
*I inst_701:A2 I
*CAP
1 TAUGATE_24:Z 0.0500
2 net_149:1 0.2552
3 net_149:2 0.2397
4 net_149:3 0.3943
5 net_149:4 0.0450
6 inst_701:A2 0.3586
7 net_149:5 0.0277
8 net_149:6 0.2232
9 net_149:7 0.0700
10 net_149:8 0.3825
11 inst_722:A2 0.4916
*RES
2 TAUGATE_24:Z net_149:1 0.1804
3 net_149:1 net_149:2 0.2132
4 net_149:2 net_149:3 0.3448
5 net_149:3 net_149:4 0.2539
6 net_149:4 inst_701:A2 0.0169
7 net_149:3 net_149:5 0.0258
8 net_149:5 net_149:6 0.0722
9 net_149:6 net_149:7 0.0268
10 net_149:7 net_149:8 0.0274
11 net_149:8 inst_722:A2 0.0955
*END

*D_NET TAUNET_50 0.7110
*CONN
*I inst_885:Z O
*I TAUGATE_50:A I
*CAP
1 inst_885:Z 0.0730
2 TAUNET_50:1 0.1500
3 TAUNET_50:2 0.2720
4 TAUNET_50:3 0.0605
5 TAUGATE_50:A 0.1555
*RES
2 inst_885:Z TAUNET_50:1 0.4347
3 TAUNET_50:1 TAUNET_50:2 0.2976
4 TAUNET_50:2 TAUNET_50:3 0.3531
5 TAUNET_50:3 TAUGATE_50:A 0.0316
*END

*D_NET n199 1.2356
*CONN
*I TAUGATE_25:Z O
*I inst_520:A4 I
*CAP
1 TAUGATE_25:Z 0.0755
2 n199:1 0.3515
3 n199:2 0.2983
4 n199:3 0.4269
5 n199:4 0.0493
6 inst_520:A4 0.0341
*RES
2 TAUGATE_25:Z n199:1 0.3020
3 n199:1 n199:2 0.3389
4 n199:2 n199:3 0.4000
5 n199:3 n199:4 0.0188
6 n199:4 inst_520:A4 0.4709
*END

*D_NET TAUNET_23 0.8262
*CONN
*I inst_338:ZN O
*I TAUGATE_23:A I
*CAP
1 inst_338:ZN 0.0122
2 TAUNET_23:1 0.0936
3 TAUNET_23:2 0.3051
4 TAUNET_23:3 0.1197
5 TAUGATE_23:A 0.2956
*RES
2 inst_338:ZN TAUNET_23:1 0.2210
3 TAUNET_23:1 TAUNET_23:2 0.0970
4 TAUNET_23:2 TAUNET_23:3 0.2798
5 TAUNET_23:3 TAUGATE_23:A 0.3150
*END

*D_NET net_748 1.2664
*CONN
*I TAUGATE_37:Z O
*I inst_218:B I
*CAP
1 TAUGATE_37:Z 0.2108
2 net_748:1 0.0161
3 net_748:2 0.2047
4 net_748:3 0.3729
5 net_748:4 0.0610
6 inst_218:B 0.4010
*RES
2 TAUGATE_37:Z net_748:1 0.2910
3 net_748:1 net_748:2 0.3768
4 net_748:2 net_748:3 0.3083
5 net_748:3 net_748:4 0.1250
6 net_748:4 inst_218:B 0.3526
*END

*D_NET TAUNET_39 1.6292
*CONN
*I inst_366:ZN O
*I TAUGATE_39:A I
*CAP
1 inst_366:ZN 0.3144
2 TAUNET_39:1 0.0820
3 TAUNET_39:2 0.2174
4 TAUNET_39:3 0.3638
5 TAUNET_39:4 0.4097
6 TAUGATE_39:A 0.2418
*RES
2 inst_366:ZN TAUNET_39:1 0.4080
3 TAUNET_39:1 TAUNET_39:2 0.3118
4 TAUNET_39:2 TAUNET_39:3 0.4981
5 TAUNET_39:3 TAUNET_39:4 0.3134
6 TAUNET_39:4 TAUGATE_39:A 0.4059
*END

*D_NET TAUNET_51 0.9494
*CONN
*I inst_190:ZN O
*I TAUGATE_51:A I
*CAP
1 inst_190:ZN 0.0910
2 TAUNET_51:1 0.3093
3 TAUNET_51:2 0.3342
4 TAUGATE_51:A 0.2150
*RES
2 inst_190:ZN TAUNET_51:1 0.0109
3 TAUNET_51:1 TAUNET_51:2 0.1830
4 TAUNET_51:2 TAUGATE_51:A 0.2298
*END

*D_NET net_964 0.1587
*CONN
*I TAUGATE_17:Z O
*I inst_275:B I
*CAP
1 TAUGATE_17:Z 0.0044
2 net_964:1 0.0476
3 net_964:2 0.0521
4 inst_275:B 0.0546
*RES
2 TAUGATE_17:Z net_964:1 0.0043
3 net_964:1 net_964:2 0.2737
4 net_964:2 inst_275:B 0.4724
*END

*D_NET TAUNET_19 1.0994
*CONN
*I inst_297:ZN O
*I TAUGATE_19:A I
*CAP
1 inst_297:ZN 0.2426
2 TAUNET_19:1 0.2784
3 TAUNET_19:2 0.2008
4 TAUGATE_19:A 0.3776
*RES
2 inst_297:ZN TAUNET_19:1 0.2937
3 TAUNET_19:1 TAUNET_19:2 0.0093
4 TAUNET_19:2 TAUGATE_19:A 0.2822
*END

*D_NET TAUNET_34 1.0927
*CONN
*I inst_1048:Z O
*I TAUGATE_34:A I
*CAP
1 inst_1048:Z 0.0309
2 TAUNET_34:1 0.3809
3 TAUNET_34:2 0.3567
4 TAUGATE_34:A 0.3242
*RES
2 inst_1048:Z TAUNET_34:1 0.2336
3 TAUNET_34:1 TAUNET_34:2 0.3863
4 TAUNET_34:2 TAUGATE_34:A 0.2365
*END

*D_NET n394 1.1858
*CONN
*I TAUGATE_20:Z O
*P n394 O
*CAP
1 TAUGATE_20:Z 0.3572
2 n394:1 0.2185
3 n394:2 0.2266
4 n394:3 0.2538
5 n394 0.1297
*RES
2 TAUGATE_20:Z n394:1 0.4791
3 n394:1 n394:2 0.2417
4 n394:2 n394:3 0.2444
5 n394:3 n394 0.4262
*END

*D_NET net_692 2.5531
*CONN
*I TAUGATE_58:Z O
*I inst_793:A1 I
*I inst_801:A1 I
*I inst_212:A I
*CAP
1 TAUGATE_58:Z 0.3015
2 net_692:1 0.3035
3 net_692:2 0.4053
4 inst_212:A 0.0863
5 net_692:3 0.3711
6 net_692:4 0.0512
7 inst_801:A1 0.1351
8 net_692:5 0.1146
9 net_692:6 0.3234
10 inst_793:A1 0.4610
*RES
2 TAUGATE_58:Z net_692:1 0.2362
3 net_692:1 net_692:2 0.1365
4 net_692:2 inst_212:A 0.0277
5 net_692:2 net_692:3 0.0984
6 net_692:3 net_692:4 0.0368
7 net_692:4 inst_801:A1 0.4376
8 net_692:1 net_692:5 0.4832
9 net_692:5 net_692:6 0.2776
10 net_692:6 inst_793:A1 0.3781
*END

*D_NET TAUNET_54 1.1921
*CONN
*I inst_808:ZN O
*I TAUGATE_54:A I
*CAP
1 inst_808:ZN 0.0185
2 TAUNET_54:1 0.1588
3 TAUNET_54:2 0.3738
4 TAUNET_54:3 0.4556
5 TAUNET_54:4 0.1835
6 TAUGATE_54:A 0.0020
*RES
2 inst_808:ZN TAUNET_54:1 0.2614
3 TAUNET_54:1 TAUNET_54:2 0.3010
4 TAUNET_54:2 TAUNET_54:3 0.2164
5 TAUNET_54:3 TAUNET_54:4 0.4372
6 TAUNET_54:4 TAUGATE_54:A 0.1158
*END

*D_NET net_706 1.1191
*CONN
*I TAUGATE_51:Z O
*I inst_548:A1 I
*CAP
1 TAUGATE_51:Z 0.3810
2 net_706:1 0.1662
3 net_706:2 0.3178
4 inst_548:A1 0.2541
*RES
2 TAUGATE_51:Z net_706:1 0.2497
3 net_706:1 net_706:2 0.4625
4 net_706:2 inst_548:A1 0.2343
*END

*D_NET TAUNET_44 1.0962
*CONN
*I inst_791:ZN O
*I TAUGATE_44:A I
*CAP
1 inst_791:ZN 0.3461
2 TAUNET_44:1 0.4109
3 TAUNET_44:2 0.0945
4 TAUNET_44:3 0.2326
5 TAUGATE_44:A 0.0121
*RES
2 inst_791:ZN TAUNET_44:1 0.2674
3 TAUNET_44:1 TAUNET_44:2 0.2072
4 TAUNET_44:2 TAUNET_44:3 0.0414
5 TAUNET_44:3 TAUGATE_44:A 0.2455
*END

*D_NET TAUNET_43 1.7627
*CONN
*P n2236 I
*I TAUGATE_43:A I
*CAP
1 n2236 0.0138
2 TAUNET_43:1 0.3131
3 TAUNET_43:2 0.4392
4 TAUNET_43:3 0.4048
5 TAUNET_43:4 0.0368
6 TAUNET_43:5 0.3283
7 TAUGATE_43:A 0.2266
*RES
2 n2236 TAUNET_43:1 0.4199
3 TAUNET_43:1 TAUNET_43:2 0.3736
4 TAUNET_43:2 TAUNET_43:3 0.3306
5 TAUNET_43:3 TAUNET_43:4 0.3042
6 TAUNET_43:4 TAUNET_43:5 0.1317
7 TAUNET_43:5 TAUGATE_43:A 0.1481
*END

*D_NET TAUNET_56 1.0046
*CONN
*I inst_477:ZN O
*I TAUGATE_56:A I
*CAP
1 inst_477:ZN 0.2201
2 TAUNET_56:1 0.3013
3 TAUNET_56:2 0.0758
4 TAUNET_56:3 0.0262
5 TAUGATE_56:A 0.3812
*RES
2 inst_477:ZN TAUNET_56:1 0.0656
3 TAUNET_56:1 TAUNET_56:2 0.1550
4 TAUNET_56:2 TAUNET_56:3 0.0047
5 TAUNET_56:3 TAUGATE_56:A 0.1418
*END

*D_NET TAUNET_55 1.5283
*CONN
*I inst_903:Z O
*I TAUGATE_55:A I
*CAP
1 inst_903:Z 0.3805
2 TAUNET_55:1 0.0497
3 TAUNET_55:2 0.4938
4 TAUNET_55:3 0.3913
5 TAUGATE_55:A 0.2131
*RES
2 inst_903:Z TAUNET_55:1 0.3201
3 TAUNET_55:1 TAUNET_55:2 0.0320
4 TAUNET_55:2 TAUNET_55:3 0.2786
5 TAUNET_55:3 TAUGATE_55:A 0.3378
*END

*D_NET TAUNET_11 2.0655
*CONN
*I inst_951:ZN O
*I TAUGATE_11:A I
*CAP
1 inst_951:ZN 0.2454
2 TAUNET_11:1 0.2663
3 TAUNET_11:2 0.3641
4 TAUNET_11:3 0.1740
5 TAUNET_11:4 0.2701
6 TAUNET_11:5 0.3351
7 TAUGATE_11:A 0.4105
*RES
2 inst_951:ZN TAUNET_11:1 0.3004
3 TAUNET_11:1 TAUNET_11:2 0.3665
4 TAUNET_11:2 TAUNET_11:3 0.1341
5 TAUNET_11:3 TAUNET_11:4 0.0859
6 TAUNET_11:4 TAUNET_11:5 0.1706
7 TAUNET_11:5 TAUGATE_11:A 0.3812
*END

*D_NET net_394 0.4838
*CONN
*I TAUGATE_33:Z O
*I inst_171:B I
*CAP
1 TAUGATE_33:Z 0.1227
2 net_394:1 0.0059
3 inst_171:B 0.3552
*RES
2 TAUGATE_33:Z net_394:1 0.3839
3 net_394:1 inst_171:B 0.1840
*END

*D_NET TAUNET_33 2.5126
*CONN
*I inst_143:ZN O
*I TAUGATE_33:A I
*CAP
1 inst_143:ZN 0.3573
2 TAUNET_33:1 0.3575
3 TAUNET_33:2 0.1715
4 TAUNET_33:3 0.3050
5 TAUNET_33:4 0.3594
6 TAUNET_33:5 0.4902
7 TAUGATE_33:A 0.4716
*RES
2 inst_143:ZN TAUNET_33:1 0.2112
3 TAUNET_33:1 TAUNET_33:2 0.1762
4 TAUNET_33:2 TAUNET_33:3 0.1166
5 TAUNET_33:3 TAUNET_33:4 0.1660
6 TAUNET_33:4 TAUNET_33:5 0.2177
7 TAUNET_33:5 TAUGATE_33:A 0.2908
*END

*D_NET net_375 4.9259
*CONN
*I TAUGATE_10:Z O
*I inst_64:B I
*I inst_532:A2 I
*I inst_4:A I
*CAP
1 TAUGATE_10:Z 0.3308
2 net_375:1 0.4669
3 net_375:2 0.1932
4 net_375:3 0.0675
5 net_375:4 0.0053
6 net_375:5 0.1459
7 inst_532:A2 0.0437
8 net_375:6 0.1669
9 net_375:7 0.4800
10 net_375:8 0.4518
11 net_375:9 0.0570
12 net_375:10 0.4909
13 inst_64:B 0.0572
14 net_375:11 0.4474
15 net_375:12 0.2931
16 net_375:13 0.2848
17 net_375:14 0.2246
18 net_375:15 0.3320
19 inst_4:A 0.3870
*RES
2 TAUGATE_10:Z net_375:1 0.4598
3 net_375:1 net_375:2 0.3838
4 net_375:2 net_375:3 0.2033
5 net_375:3 net_375:4 0.3263
6 net_375:4 net_375:5 0.4574
7 net_375:5 inst_532:A2 0.4683
8 net_375:2 net_375:6 0.5008
9 net_375:6 net_375:7 0.1013
10 net_375:7 net_375:8 0.2457
11 net_375:8 net_375:9 0.4210
12 net_375:9 net_375:10 0.2594
13 net_375:10 inst_64:B 0.3565
14 net_375:9 net_375:11 0.3663
15 net_375:11 net_375:12 0.1512
16 net_375:12 net_375:13 0.1368
17 net_375:13 net_375:14 0.4493
18 net_375:14 net_375:15 0.4663
19 net_375:15 inst_4:A 0.2866
*END

*D_NET TAUNET_22 1.6286
*CONN
*I inst_23:Z O
*I TAUGATE_22:A I
*CAP
1 inst_23:Z 0.1599
2 TAUNET_22:1 0.4697
3 TAUNET_22:2 0.4844
4 TAUNET_22:3 0.0401
5 TAUNET_22:4 0.2861
6 TAUGATE_22:A 0.1883
*RES
2 inst_23:Z TAUNET_22:1 0.3075
3 TAUNET_22:1 TAUNET_22:2 0.0604
4 TAUNET_22:2 TAUNET_22:3 0.3908
5 TAUNET_22:3 TAUNET_22:4 0.2921
6 TAUNET_22:4 TAUGATE_22:A 0.4162
*END

*D_NET TAUNET_41 1.0326
*CONN
*I inst_1115:ZN O
*I TAUGATE_41:A I
*CAP
1 inst_1115:ZN 0.0491
2 TAUNET_41:1 0.2111
3 TAUNET_41:2 0.3010
4 TAUNET_41:3 0.1515
5 TAUNET_41:4 0.0492
6 TAUGATE_41:A 0.2707
*RES
2 inst_1115:ZN TAUNET_41:1 0.0711
3 TAUNET_41:1 TAUNET_41:2 0.2365
4 TAUNET_41:2 TAUNET_41:3 0.0021
5 TAUNET_41:3 TAUNET_41:4 0.2080
6 TAUNET_41:4 TAUGATE_41:A 0.3529
*END

*D_NET TAUNET_30 1.9943
*CONN
*P n3705 I
*I TAUGATE_30:A I
*CAP
1 n3705 0.3648
2 TAUNET_30:1 0.3187
3 TAUNET_30:2 0.4272
4 TAUNET_30:3 0.0224
5 TAUNET_30:4 0.4026
6 TAUNET_30:5 0.2784
7 TAUGATE_30:A 0.1803
*RES
2 n3705 TAUNET_30:1 0.0882
3 TAUNET_30:1 TAUNET_30:2 0.2924
4 TAUNET_30:2 TAUNET_30:3 0.4780
5 TAUNET_30:3 TAUNET_30:4 0.3510
6 TAUNET_30:4 TAUNET_30:5 0.1182
7 TAUNET_30:5 TAUGATE_30:A 0.2614
*END

*D_NET TAUNET_58 2.0123
*CONN
*I inst_469:ZN O
*I TAUGATE_58:A I
*CAP
1 inst_469:ZN 0.2582
2 TAUNET_58:1 0.0762
3 TAUNET_58:2 0.1986
4 TAUNET_58:3 0.3922
5 TAUNET_58:4 0.3950
6 TAUNET_58:5 0.2666
7 TAUGATE_58:A 0.4255
*RES
2 inst_469:ZN TAUNET_58:1 0.4671
3 TAUNET_58:1 TAUNET_58:2 0.2972
4 TAUNET_58:2 TAUNET_58:3 0.3936
5 TAUNET_58:3 TAUNET_58:4 0.4880
6 TAUNET_58:4 TAUNET_58:5 0.4169
7 TAUNET_58:5 TAUGATE_58:A 0.3167
*END

*D_NET net_438 1.2435
*CONN
*I TAUGATE_26:Z O
*I inst_352:A3 I
*CAP
1 TAUGATE_26:Z 0.1073
2 net_438:1 0.1300
3 net_438:2 0.3795
4 net_438:3 0.2362
5 net_438:4 0.1908
6 inst_352:A3 0.1996
*RES
2 TAUGATE_26:Z net_438:1 0.3123
3 net_438:1 net_438:2 0.1251
4 net_438:2 net_438:3 0.0048
5 net_438:3 net_438:4 0.3126
6 net_438:4 inst_352:A3 0.0195
*END

*D_NET net_21 1.8169
*CONN
*I TAUGATE_11:Z O
*I inst_870:A I
*CAP
1 TAUGATE_11:Z 0.3700
2 net_21:1 0.3466
3 net_21:2 0.4948
4 net_21:3 0.4038
5 net_21:4 0.1954
6 inst_870:A 0.0063
*RES
2 TAUGATE_11:Z net_21:1 0.4904
3 net_21:1 net_21:2 0.0915
4 net_21:2 net_21:3 0.4619
5 net_21:3 net_21:4 0.1065
6 net_21:4 inst_870:A 0.1990
*END

*D_NET TAUNET_52 0.5577
*CONN
*P n4432 I
*I TAUGATE_52:A I
*CAP
1 n4432 0.0690
2 TAUNET_52:1 0.2934
3 TAUNET_52:2 0.0661
4 TAUNET_52:3 0.0281
5 TAUGATE_52:A 0.1011
*RES
2 n4432 TAUNET_52:1 0.2539
3 TAUNET_52:1 TAUNET_52:2 0.0765
4 TAUNET_52:2 TAUNET_52:3 0.1980
5 TAUNET_52:3 TAUGATE_52:A 0.3226
*END

*D_NET TAUNET_59 2.4686
*CONN
*I inst_1083:Z O
*I TAUGATE_59:A I
*CAP
1 inst_1083:Z 0.2766
2 TAUNET_59:1 0.4267
3 TAUNET_59:2 0.4596
4 TAUNET_59:3 0.3295
5 TAUNET_59:4 0.4724
6 TAUNET_59:5 0.4631
7 TAUGATE_59:A 0.0407
*RES
2 inst_1083:Z TAUNET_59:1 0.4130
3 TAUNET_59:1 TAUNET_59:2 0.3462
4 TAUNET_59:2 TAUNET_59:3 0.0714
5 TAUNET_59:3 TAUNET_59:4 0.2110
6 TAUNET_59:4 TAUNET_59:5 0.2588
7 TAUNET_59:5 TAUGATE_59:A 0.0339
*END

*D_NET net_647 1.8340
*CONN
*I TAUGATE_28:Z O
*I inst_1029:A I
*I inst_821:A1 I
*CAP
1 TAUGATE_28:Z 0.4874
2 net_647:1 0.2489
3 inst_1029:A 0.2584
4 net_647:2 0.2746
5 net_647:3 0.4228
6 inst_821:A1 0.1417
*RES
2 TAUGATE_28:Z net_647:1 0.0346
3 net_647:1 inst_1029:A 0.4333
4 net_647:1 net_647:2 0.3754
5 net_647:2 net_647:3 0.2016
6 net_647:3 inst_821:A1 0.0068
*END

*D_NET n2236 4.4833
*CONN
*I TAUGATE_43:Z O
*I inst_940:A I
*I inst_1072:A I
*I inst_118:B I
*I inst_419:A1 I
*CAP
1 TAUGATE_43:Z 0.4220
2 n2236:1 0.0580
3 n2236:2 0.3810
4 n2236:3 0.2195
5 n2236:4 0.2042
6 n2236:5 0.2030
7 inst_1072:A 0.2656
8 n2236:6 0.2654
9 inst_940:A 0.2245
10 n2236:7 0.4235
11 inst_118:B 0.1903
12 n2236:8 0.2497
13 n2236:9 0.2766
14 n2236:10 0.3086
15 n2236:11 0.2353
16 n2236:12 0.4838
17 inst_419:A1 0.0722
*RES
2 TAUGATE_43:Z n2236:1 0.4413
3 n2236:1 n2236:2 0.1336
4 n2236:2 n2236:3 0.4042
5 n2236:3 n2236:4 0.0451
6 n2236:4 n2236:5 0.2391
7 n2236:5 inst_1072:A 0.0321
8 n2236:5 n2236:6 0.4797
9 n2236:6 inst_940:A 0.0551
10 n2236:3 n2236:7 0.2143
11 n2236:7 inst_118:B 0.0701
12 n2236:5 n2236:8 0.3539
13 n2236:8 n2236:9 0.3446
14 n2236:9 n2236:10 0.0192
15 n2236:10 n2236:11 0.1341
16 n2236:11 n2236:12 0.4054
17 n2236:12 inst_419:A1 0.3681
*END

*D_NET n3705 5.1142
*CONN
*I TAUGATE_30:Z O
*I inst_944:A I
*I inst_426:A1 I
*I inst_112:B I
*I inst_1049:A I
*CAP
1 TAUGATE_30:Z 0.1561
2 n3705:1 0.0224
3 n3705:2 0.3933
4 inst_1049:A 0.2244
5 n3705:3 0.4918
6 n3705:4 0.3583
7 n3705:5 0.0251
8 n3705:6 0.0071
9 inst_426:A1 0.2242
10 n3705:7 0.3703
11 n3705:8 0.0365
12 n3705:9 0.4409
13 n3705:10 0.4335
14 n3705:11 0.3158
15 inst_112:B 0.2513
16 n3705:12 0.1489
17 n3705:13 0.3442
18 n3705:14 0.1815
19 n3705:15 0.2112
20 n3705:16 0.3238
21 inst_944:A 0.1536
*RES
2 TAUGATE_30:Z n3705:1 0.4154
3 n3705:1 n3705:2 0.1374
4 n3705:2 inst_1049:A 0.1713
5 n3705:1 n3705:3 0.4834
6 n3705:3 n3705:4 0.4589
7 n3705:4 n3705:5 0.0098
8 n3705:5 n3705:6 0.3264
9 n3705:6 inst_426:A1 0.2846
10 n3705:2 n3705:7 0.4798
11 n3705:7 n3705:8 0.1640
12 n3705:8 n3705:9 0.1778
13 n3705:9 n3705:10 0.3155
14 n3705:10 n3705:11 0.4909
15 n3705:11 inst_112:B 0.2285
16 n3705:5 n3705:12 0.2744
17 n3705:12 n3705:13 0.3973
18 n3705:13 n3705:14 0.0682
19 n3705:14 n3705:15 0.0813
20 n3705:15 n3705:16 0.2235
21 n3705:16 inst_944:A 0.0018
*END

*D_NET TAUNET_48 1.8273
*CONN
*I inst_509:ZN O
*I TAUGATE_48:A I
*CAP
1 inst_509:ZN 0.4580
2 TAUNET_48:1 0.4660
3 TAUNET_48:2 0.3296
4 TAUNET_48:3 0.2711
5 TAUNET_48:4 0.1177
6 TAUNET_48:5 0.1130
7 TAUGATE_48:A 0.0719
*RES
2 inst_509:ZN TAUNET_48:1 0.2913
3 TAUNET_48:1 TAUNET_48:2 0.3837
4 TAUNET_48:2 TAUNET_48:3 0.4308