*SPEF "IEEE 1481-1998"
*DESIGN "changes"
*DATE "Tue Dec 02 20:45:20 2014"
*VENDOR "TAU 2015 Contest"
*PROGRAM "Benchmark Parasitic Generator"
*VERSION "0.0"
*DESIGN_FLOW "NETLIST_TYPE_VERILOG"
*DIVIDER /
*DELIMITER :
*BUS_DELIMITER [ ]
*T_UNIT 1 PS
*C_UNIT 1 FF
*R_UNIT 1 KOHM
*L_UNIT 1 UH

*D_NET n408 3.0173
*CONN
*I inst_518:ZN O
*P n408 O
*I inst_305:A2 I
*CAP
1 inst_518:ZN 0.2611
2 n408:1 0.4098
3 n408:2 0.5009
4 n408:3 0.2843
5 n408 0.2878
6 n408:4 0.4685
7 n408:5 0.3070
8 n408:6 0.3583
9 inst_305:A2 0.1395
*RES
2 inst_518:ZN n408:1 0.1659
3 n408:1 n408:2 0.2742
4 n408:2 n408:3 0.3494
5 n408:3 n408 0.1485
6 n408:3 n408:4 0.0646
7 n408:4 n408:5 0.0794
8 n408:5 n408:6 0.2161
9 n408:6 inst_305:A2 0.1614
*END

*D_NET net_435 4.7351
*CONN
*I inst_428:ZN O
*I inst_1125:A1 I
*I inst_464:A1 I
*I inst_768:A1 I
*CAP
1 inst_428:ZN 0.3755
2 net_435:1 0.4559
3 net_435:2 0.4050
4 net_435:3 0.0154
5 net_435:4 0.1670
6 net_435:5 0.1555
7 inst_464:A1 0.2440
8 net_435:6 0.0740
9 net_435:7 0.4871
10 net_435:8 0.4951
11 net_435:9 0.4125
12 inst_1125:A1 0.0565
13 net_435:10 0.4708
14 net_435:11 0.3056
15 net_435:12 0.3464
16 net_435:13 0.0305
17 inst_768:A1 0.2383
*RES
2 inst_428:ZN net_435:1 0.0332
3 net_435:1 net_435:2 0.0406
4 net_435:2 net_435:3 0.2732
5 net_435:3 net_435:4 0.0073
6 net_435:4 net_435:5 0.1308
7 net_435:5 inst_464:A1 0.1374
8 net_435:4 net_435:6 0.1285
9 net_435:6 net_435:7 0.0292
10 net_435:7 net_435:8 0.2926
11 net_435:8 net_435:9 0.4507
12 net_435:9 inst_1125:A1 0.3356
13 net_435:8 net_435:10 0.4020
14 net_435:10 net_435:11 0.2529
15 net_435:11 net_435:12 0.2665
16 net_435:12 net_435:13 0.4354
17 net_435:13 inst_768:A1 0.1977
*END

*D_NET net_176 3.5531
*CONN
*I TAUGATE_1150:Z O
*I inst_429:A2 I
*I inst_132:A I
*I inst_34:B I
*CAP
1 TAUGATE_1150:Z 0.3276
2 net_176:1 0.3292
3 net_176:2 0.0716
4 net_176:3 0.2236
5 net_176:4 0.1922
6 inst_429:A2 0.2805
7 net_176:5 0.3943
8 net_176:6 0.2211
9 net_176:7 0.1955
10 inst_132:A 0.1868
11 net_176:8 0.4792
12 net_176:9 0.1808
13 net_176:10 0.0717
14 inst_34:B 0.3990
*RES
2 TAUGATE_1150:Z net_176:1 0.1322
3 net_176:1 net_176:2 0.1905
4 net_176:2 net_176:3 0.4017
5 net_176:3 net_176:4 0.4680
6 net_176:4 inst_429:A2 0.2976
7 net_176:2 net_176:5 0.4889
8 net_176:5 net_176:6 0.0703
9 net_176:6 net_176:7 0.3298
10 net_176:7 inst_132:A 0.4131
11 net_176:5 net_176:8 0.4035
12 net_176:8 net_176:9 0.0219
13 net_176:9 net_176:10 0.0830
14 net_176:10 inst_34:B 0.4539
*END

*D_NET net_137 4.0262
*CONN
*I TAUGATE_57:Z O
*I inst_704:A2 I
*I inst_685:A2 I
*CAP
1 TAUGATE_57:Z 0.3196
2 net_137:1 0.3591
3 net_137:2 0.2780
4 net_137:3 0.2022
5 net_137:4 0.1593
6 net_137:5 0.4382
7 inst_704:A2 0.3498
8 net_137:6 0.3789
9 net_137:7 0.3545
10 net_137:8 0.1033
11 net_137:9 0.4316
12 net_137:10 0.1782
13 inst_685:A2 0.4734
*RES
2 TAUGATE_57:Z net_137:1 0.4055
3 net_137:1 net_137:2 0.4519
4 net_137:2 net_137:3 0.4658
5 net_137:3 net_137:4 0.3690
6 net_137:4 net_137:5 0.4019
7 net_137:5 inst_704:A2 0.0632
8 net_137:3 net_137:6 0.0376
9 net_137:6 net_137:7 0.0972
10 net_137:7 net_137:8 0.3594
11 net_137:8 net_137:9 0.0525
12 net_137:9 net_137:10 0.3248
13 net_137:10 inst_685:A2 0.2597
*END

*D_NET net_933 1.7670
*CONN
*I inst_593:ZN O
*I inst_843:A2 I
*CAP
1 inst_593:ZN 0.3840
2 net_933:1 0.3726
3 net_933:2 0.2980
4 net_933:3 0.2454
5 inst_843:A2 0.4670
*RES
2 inst_593:ZN net_933:1 0.1921
3 net_933:1 net_933:2 0.1376
4 net_933:2 net_933:3 0.4443
5 net_933:3 inst_843:A2 0.1288
*END

*D_NET net_54 0.9235
*CONN
*I inst_622:ZN O
*I inst_711:A1 I
*CAP
1 inst_622:ZN 0.1405
2 net_54:1 0.3699
3 inst_711:A1 0.4131
*RES
2 inst_622:ZN net_54:1 0.4004
3 net_54:1 inst_711:A1 0.4814
*END

*D_NET n94 0.7257
*CONN
*P n94 I
*I inst_657:A1 I
*CAP
1 n94 0.3915
2 n94:1 0.3089
3 inst_657:A1 0.0253
*RES
2 n94 n94:1 0.3105
3 n94:1 inst_657:A1 0.1881
*END

*D_NET net_943 2.3340
*CONN
*I inst_244:ZN O
*I inst_900:B I
*I inst_899:A I
*CAP
1 inst_244:ZN 0.1592
2 net_943:1 0.2761
3 net_943:2 0.3643
4 net_943:3 0.2288
5 net_943:4 0.0666
6 inst_900:B 0.3854
7 net_943:5 0.4921
8 net_943:6 0.1648
9 net_943:7 0.1855
10 inst_899:A 0.0112
*RES
2 inst_244:ZN net_943:1 0.3580
3 net_943:1 net_943:2 0.3774
4 net_943:2 net_943:3 0.2731
5 net_943:3 net_943:4 0.1525
6 net_943:4 inst_900:B 0.0518
7 net_943:3 net_943:5 0.3530
8 net_943:5 net_943:6 0.1128
9 net_943:6 net_943:7 0.2239
10 net_943:7 inst_899:A 0.0917
*END

*D_NET n61 1.2310
*CONN
*P n61 I
*I inst_876:B I
*CAP
1 n61 0.1494
2 n61:1 0.1620
3 n61:2 0.0029
4 n61:3 0.2883
5 n61:4 0.1903
6 inst_876:B 0.4381
*RES
2 n61 n61:1 0.3484
3 n61:1 n61:2 0.0801
4 n61:2 n61:3 0.1392
5 n61:3 n61:4 0.1891
6 n61:4 inst_876:B 0.0464
*END

*D_NET n53 1.0649
*CONN
*P n53 I
*I inst_889:B I
*CAP
1 n53 0.0279
2 n53:1 0.0649
3 n53:2 0.0510
4 n53:3 0.1600
5 n53:4 0.1748
6 n53:5 0.4787
7 inst_889:B 0.1076
*RES
2 n53 n53:1 0.4606
3 n53:1 n53:2 0.3388
4 n53:2 n53:3 0.4657
5 n53:3 n53:4 0.3595
6 n53:4 n53:5 0.2471
7 n53:5 inst_889:B 0.0832
*END

*D_NET net_834 0.8209
*CONN
*I inst_1043:ZN O
*I inst_827:A2 I
*CAP
1 inst_1043:ZN 0.3736
2 net_834:1 0.3644
3 inst_827:A2 0.0829
*RES
2 inst_1043:ZN net_834:1 0.1977
3 net_834:1 inst_827:A2 0.4694
*END

*D_NET net_429 2.0853
*CONN
*I inst_768:ZN O
*I inst_784:A1 I
*CAP
1 inst_768:ZN 0.3882
2 net_429:1 0.0413
3 net_429:2 0.4651
4 net_429:3 0.4065
5 net_429:4 0.3164
6 net_429:5 0.3513
7 inst_784:A1 0.1165
*RES
2 inst_768:ZN net_429:1 0.0986
3 net_429:1 net_429:2 0.2243
4 net_429:2 net_429:3 0.1286
5 net_429:3 net_429:4 0.4269
6 net_429:4 net_429:5 0.2482
7 net_429:5 inst_784:A1 0.2195
*END

*D_NET net_648 1.7569
*CONN
*I inst_1029:ZN O
*I inst_805:A2 I
*CAP
1 inst_1029:ZN 0.4091
2 net_648:1 0.3587
3 net_648:2 0.1869
4 net_648:3 0.4974
5 inst_805:A2 0.3047
*RES
2 inst_1029:ZN net_648:1 0.1200
3 net_648:1 net_648:2 0.4969
4 net_648:2 net_648:3 0.1210
5 net_648:3 inst_805:A2 0.1733
*END

*D_NET TAUNET_801 1.1896
*CONN
*I TAUGATE_1267:Z O
*I TAUGATE_801:A I
*CAP
1 TAUGATE_1267:Z 0.0283
2 TAUNET_801:1 0.2945
3 TAUNET_801:2 0.3177
4 TAUNET_801:3 0.2101
5 TAUGATE_801:A 0.3390
*RES
2 TAUGATE_1267:Z TAUNET_801:1 0.2046
3 TAUNET_801:1 TAUNET_801:2 0.3404
4 TAUNET_801:2 TAUNET_801:3 0.1317
5 TAUNET_801:3 TAUGATE_801:A 0.3617
*END

*D_NET net_53 1.2055
*CONN
*I inst_620:ZN O
*I inst_702:A1 I
*CAP
1 inst_620:ZN 0.3629
2 net_53:1 0.3900
3 net_53:2 0.0557
4 net_53:3 0.1253
5 inst_702:A1 0.2716
*RES
2 inst_620:ZN net_53:1 0.3735
3 net_53:1 net_53:2 0.1079
4 net_53:2 net_53:3 0.3323
5 net_53:3 inst_702:A1 0.2907
*END

*D_NET net_93 1.4383
*CONN
*I TAUGATE_956:Z O
*I inst_709:A2 I
*CAP
1 TAUGATE_956:Z 0.4966
2 net_93:1 0.2702
3 net_93:2 0.2135
4 net_93:3 0.0419
5 net_93:4 0.2773
6 net_93:5 0.0903
7 inst_709:A2 0.0485
*RES
2 TAUGATE_956:Z net_93:1 0.4602
3 net_93:1 net_93:2 0.4262
4 net_93:2 net_93:3 0.2009
5 net_93:3 net_93:4 0.3114
6 net_93:4 net_93:5 0.3090
7 net_93:5 inst_709:A2 0.3972
*END

*D_NET net_210 1.1430
*CONN
*I inst_5:Z O
*I inst_142:B I
*CAP
1 inst_5:Z 0.2443
2 net_210:1 0.3734
3 net_210:2 0.1567
4 net_210:3 0.1247
5 inst_142:B 0.2439
*RES
2 inst_5:Z net_210:1 0.2588
3 net_210:1 net_210:2 0.4474
4 net_210:2 net_210:3 0.3528
5 net_210:3 inst_142:B 0.0472
*END

*D_NET n220 1.3929
*CONN
*P n220 I
*I inst_644:A2 I
*CAP
1 n220 0.1981
2 n220:1 0.0169
3 n220:2 0.4026
4 n220:3 0.4684
5 n220:4 0.2490
6 inst_644:A2 0.0579
*RES
2 n220 n220:1 0.0423
3 n220:1 n220:2 0.2861
4 n220:2 n220:3 0.4278
5 n220:3 n220:4 0.3875
6 n220:4 inst_644:A2 0.4796
*END

*D_NET net_545 1.0064
*CONN
*I inst_341:ZN O
*I inst_1134:A2 I
*CAP
1 inst_341:ZN 0.1554
2 net_545:1 0.4380
3 inst_1134:A2 0.4130
*RES
2 inst_341:ZN net_545:1 0.4990
3 net_545:1 inst_1134:A2 0.2134
*END

*D_NET TAUNET_937 2.0765
*CONN
*I inst_1011:ZN O
*I TAUGATE_937:A I
*CAP
1 inst_1011:ZN 0.4947
2 TAUNET_937:1 0.2854
3 TAUNET_937:2 0.4464
4 TAUNET_937:3 0.2438
5 TAUNET_937:4 0.2969
6 TAUGATE_937:A 0.3091
*RES
2 inst_1011:ZN TAUNET_937:1 0.5006
3 TAUNET_937:1 TAUNET_937:2 0.2264
4 TAUNET_937:2 TAUNET_937:3 0.3973
5 TAUNET_937:3 TAUNET_937:4 0.2044
6 TAUNET_937:4 TAUGATE_937:A 0.1531
*END

*D_NET net_916 1.6751
*CONN
*I inst_503:ZN O
*I inst_507:A2 I
*I inst_1141:A2 I
*CAP
1 inst_503:ZN 0.2618
2 net_916:1 0.4002
3 net_916:2 0.3652
4 net_916:3 0.1857
5 inst_1141:A2 0.0562
6 net_916:4 0.1026
7 net_916:5 0.1939
8 inst_507:A2 0.1095
*RES
2 inst_503:ZN net_916:1 0.0882
3 net_916:1 net_916:2 0.4386
4 net_916:2 net_916:3 0.2715
5 net_916:3 inst_1141:A2 0.0199
6 net_916:1 net_916:4 0.0212
7 net_916:4 net_916:5 0.1417
8 net_916:5 inst_507:A2 0.2190
*END

*D_NET net_786 1.5644
*CONN
*I inst_817:ZN O
*I inst_1140:A2 I
*CAP
1 inst_817:ZN 0.1138
2 net_786:1 0.3663
3 net_786:2 0.2540
4 net_786:3 0.0526
5 net_786:4 0.2388
6 net_786:5 0.1787
7 inst_1140:A2 0.3603
*RES
2 inst_817:ZN net_786:1 0.0603
3 net_786:1 net_786:2 0.0863
4 net_786:2 net_786:3 0.3102
5 net_786:3 net_786:4 0.1239
6 net_786:4 net_786:5 0.2473
7 net_786:5 inst_1140:A2 0.0055
*END

*D_NET net_826 1.2459
*CONN
*I inst_221:ZN O
*I inst_236:A I
*CAP
1 inst_221:ZN 0.2412
2 net_826:1 0.4441
3 net_826:2 0.4218
4 net_826:3 0.0848
5 net_826:4 0.0266
6 inst_236:A 0.0274
*RES
2 inst_221:ZN net_826:1 0.4218
3 net_826:1 net_826:2 0.2061
4 net_826:2 net_826:3 0.2110
5 net_826:3 net_826:4 0.4583
6 net_826:4 inst_236:A 0.3985
*END

*D_NET net_923 3.4014
*CONN
*I inst_834:ZN O
*I inst_838:A2 I
*I inst_839:A2 I
*I inst_259:B I
*I inst_1046:A I
*CAP
1 inst_834:ZN 0.0725
2 net_923:1 0.3124
3 net_923:2 0.3685
4 net_923:3 0.4317
5 net_923:4 0.1801
6 net_923:5 0.2826
7 inst_838:A2 0.3420
8 net_923:6 0.0327
9 net_923:7 0.0608
10 inst_839:A2 0.3721
11 net_923:8 0.2502
12 inst_259:B 0.2506
13 net_923:9 0.2747
14 inst_1046:A 0.1704
*RES
2 inst_834:ZN net_923:1 0.0965
3 net_923:1 net_923:2 0.2555
4 net_923:2 net_923:3 0.1304
5 net_923:3 net_923:4 0.3675
6 net_923:4 net_923:5 0.4634
7 net_923:5 inst_838:A2 0.2869
8 net_923:2 net_923:6 0.4648
9 net_923:6 net_923:7 0.2376
10 net_923:7 inst_839:A2 0.1146
11 net_923:2 net_923:8 0.4486
12 net_923:8 inst_259:B 0.0641
13 net_923:5 net_923:9 0.2303
14 net_923:9 inst_1046:A 0.0121
*END

*D_NET TAUNET_1463 1.7101
*CONN
*I TAUGATE_921:Z O
*I TAUGATE_1463:A I
*I inst_60:A I
*I inst_129:A I
*CAP
1 TAUGATE_921:Z 0.0267
2 TAUNET_1463:1 0.1079
3 TAUNET_1463:2 0.3621
4 TAUGATE_1463:A 0.1254
5 TAUNET_1463:3 0.3990
6 TAUNET_1463:4 0.0185
7 TAUNET_1463:5 0.3777
8 inst_60:A 0.2437
9 TAUNET_1463:6 0.0227
10 inst_129:A 0.0264
*RES
2 TAUGATE_921:Z TAUNET_1463:1 0.3490
3 TAUNET_1463:1 TAUNET_1463:2 0.4751
4 TAUNET_1463:2 TAUGATE_1463:A 0.3195
5 TAUNET_1463:1 TAUNET_1463:3 0.3641
6 TAUNET_1463:3 TAUNET_1463:4 0.1411
7 TAUNET_1463:4 TAUNET_1463:5 0.2452
8 TAUNET_1463:5 inst_60:A 0.2723
9 TAUNET_1463:1 TAUNET_1463:6 0.0174
10 TAUNET_1463:6 inst_129:A 0.1906
*END

*D_NET TAUNET_381 0.7381
*CONN
*I TAUGATE_686:Z O
*I TAUGATE_381:A I
*CAP
1 TAUGATE_686:Z 0.0937
2 TAUNET_381:1 0.3987
3 TAUNET_381:2 0.0209
4 TAUNET_381:3 0.1182
5 TAUGATE_381:A 0.1067
*RES
2 TAUGATE_686:Z TAUNET_381:1 0.4881
3 TAUNET_381:1 TAUNET_381:2 0.3672
4 TAUNET_381:2 TAUNET_381:3 0.4629
5 TAUNET_381:3 TAUGATE_381:A 0.1157
*END

*D_NET net_1017 1.8683
*CONN
*I inst_283:ZN O
*I inst_295:A I
*CAP
1 inst_283:ZN 0.2138
2 net_1017:1 0.2979
3 net_1017:2 0.3428
4 net_1017:3 0.2325
5 net_1017:4 0.2733
6 net_1017:5 0.1266
7 inst_295:A 0.3814
*RES
2 inst_283:ZN net_1017:1 0.1363
3 net_1017:1 net_1017:2 0.3277
4 net_1017:2 net_1017:3 0.3144
5 net_1017:3 net_1017:4 0.4503
6 net_1017:4 net_1017:5 0.3676
7 net_1017:5 inst_295:A 0.1603
*END

*D_NET n404 1.7070
*CONN
*I inst_521:ZN O
*P n404 O
*I inst_304:A1 I
*CAP
1 inst_521:ZN 0.1159
2 n404:1 0.1465
3 n404:2 0.1463
4 n404:3 0.4621
5 n404:4 0.4065
6 n404:5 0.0227
7 inst_304:A1 0.2236
8 n404:6 0.1222
9 n404 0.0613
*RES
2 inst_521:ZN n404:1 0.4114
3 n404:1 n404:2 0.0715
4 n404:2 n404:3 0.1546
5 n404:3 n404:4 0.1861
6 n404:4 n404:5 0.4367
7 n404:5 inst_304:A1 0.3452
8 n404:1 n404:6 0.1692
9 n404:6 n404 0.4407
*END

*D_NET net_259 3.8153
*CONN
*I inst_875:Z O
*I inst_18:A I
*I inst_4:B I
*I inst_565:A1 I
*CAP
1 inst_875:Z 0.2563
2 net_259:1 0.2603
3 net_259:2 0.2874
4 net_259:3 0.3072
5 inst_565:A1 0.2768
6 net_259:4 0.2138
7 net_259:5 0.4796
8 net_259:6 0.3806
9 inst_4:B 0.4946
10 net_259:7 0.1750
11 net_259:8 0.4103
12 net_259:9 0.0845
13 inst_18:A 0.1888
*RES
2 inst_875:Z net_259:1 0.1679
3 net_259:1 net_259:2 0.2053
4 net_259:2 net_259:3 0.2140
5 net_259:3 inst_565:A1 0.3306
6 net_259:1 net_259:4 0.4608
7 net_259:4 net_259:5 0.4692
8 net_259:5 net_259:6 0.4766
9 net_259:6 inst_4:B 0.0589
10 net_259:1 net_259:7 0.1436
11 net_259:7 net_259:8 0.1762
12 net_259:8 net_259:9 0.4748
13 net_259:9 inst_18:A 0.0806
*END

*D_NET TAUNET_9 0.9252
*CONN
*I inst_938:ZN O
*I TAUGATE_9:A I
*CAP
1 inst_938:ZN 0.2069
2 TAUNET_9:1 0.4137
3 TAUGATE_9:A 0.3046
*RES
2 inst_938:ZN TAUNET_9:1 0.2987
3 TAUNET_9:1 TAUGATE_9:A 0.2640
*END

*D_NET net_348 4.0045
*CONN
*I inst_404:ZN O
*I inst_136:A I
*I inst_744:A2 I
*I inst_53:B I
*CAP
1 inst_404:ZN 0.4110
2 net_348:1 0.3538
3 inst_744:A2 0.4300
4 net_348:2 0.4025
5 net_348:3 0.5010
6 net_348:4 0.3538
7 inst_136:A 0.4649
8 net_348:5 0.0616
9 net_348:6 0.4298
10 net_348:7 0.2857
11 net_348:8 0.2634
12 inst_53:B 0.0470
*RES
2 inst_404:ZN net_348:1 0.3629
3 net_348:1 inst_744:A2 0.0787
4 net_348:1 net_348:2 0.0482
5 net_348:2 net_348:3 0.1062
6 net_348:3 net_348:4 0.2963
7 net_348:4 inst_136:A 0.4911
8 net_348:2 net_348:5 0.0745
9 net_348:5 net_348:6 0.1738
10 net_348:6 net_348:7 0.4336
11 net_348:7 net_348:8 0.4556
12 net_348:8 inst_53:B 0.1284
*END

*D_NET net_76 1.6488
*CONN
*I inst_644:ZN O
*I inst_719:A1 I
*CAP
1 inst_644:ZN 0.1731
2 net_76:1 0.3095
3 net_76:2 0.4895
4 net_76:3 0.4033
5 inst_719:A1 0.2734
*RES
2 inst_644:ZN net_76:1 0.3461
3 net_76:1 net_76:2 0.3729
4 net_76:2 net_76:3 0.0418
5 net_76:3 inst_719:A1 0.3671
*END

*D_NET TAUNET_161 1.1766
*CONN
*I TAUGATE_95:Z O
*I TAUGATE_161:A I
*CAP
1 TAUGATE_95:Z 0.1458
2 TAUNET_161:1 0.0683
3 TAUNET_161:2 0.2135
4 TAUNET_161:3 0.4484
5 TAUNET_161:4 0.1379
6 TAUNET_161:5 0.1139
7 TAUGATE_161:A 0.0489
*RES
2 TAUGATE_95:Z TAUNET_161:1 0.0861
3 TAUNET_161:1 TAUNET_161:2 0.1477
4 TAUNET_161:2 TAUNET_161:3 0.4806
5 TAUNET_161:3 TAUNET_161:4 0.3473
6 TAUNET_161:4 TAUNET_161:5 0.1114
7 TAUNET_161:5 TAUGATE_161:A 0.0198
*END

*D_NET net_501 2.0885
*CONN
*I inst_740:ZN O
*I inst_452:A1 I
*I inst_588:A2 I
*CAP
1 inst_740:ZN 0.1100
2 net_501:1 0.3290
3 net_501:2 0.1592
4 net_501:3 0.4236
5 inst_452:A1 0.3328
6 net_501:4 0.4963
7 inst_588:A2 0.2377
*RES
2 inst_740:ZN net_501:1 0.1906
3 net_501:1 net_501:2 0.5003
4 net_501:2 net_501:3 0.4347
5 net_501:3 inst_452:A1 0.3044
6 net_501:1 net_501:4 0.2571
7 net_501:4 inst_588:A2 0.3610
*END

*D_NET n160 1.7034
*CONN
*P n160 I
*I inst_597:A1 I
*CAP
1 n160 0.2690
2 n160:1 0.3400
3 n160:2 0.2352
4 n160:3 0.3112
5 n160:4 0.1345
6 inst_597:A1 0.4134
*RES
2 n160 n160:1 0.0741
3 n160:1 n160:2 0.4290
4 n160:2 n160:3 0.4891
5 n160:3 n160:4 0.0621
6 n160:4 inst_597:A1 0.2122
*END

*D_NET n560 0.7629
*CONN
*I TAUGATE_34:Z O
*P n560 O
*CAP
1 TAUGATE_34:Z 0.1253
2 n560:1 0.2343
3 n560:2 0.1106
4 n560:3 0.0283
5 n560 0.2644
*RES
2 TAUGATE_34:Z n560:1 0.3395
3 n560:1 n560:2 0.4160
4 n560:2 n560:3 0.1311
5 n560:3 n560 0.1702
*END

*D_NET net_326 2.7314
*CONN
*I inst_714:ZN O
*I inst_45:A I
*I inst_63:B I
*I inst_977:A I
*CAP
1 inst_714:ZN 0.0383
2 net_326:1 0.2177
3 net_326:2 0.0520
4 net_326:3 0.1787
5 inst_45:A 0.3277
6 net_326:4 0.0500
7 net_326:5 0.3450
8 net_326:6 0.2552
9 net_326:7 0.2397
10 inst_63:B 0.3943
11 net_326:8 0.2910
12 inst_977:A 0.3418
*RES
2 inst_714:ZN net_326:1 0.2308
3 net_326:1 net_326:2 0.1825
4 net_326:2 net_326:3 0.4154
5 net_326:3 inst_45:A 0.4205
6 net_326:1 net_326:4 0.0450
7 net_326:4 net_326:5 0.3586
8 net_326:5 net_326:6 0.1804
9 net_326:6 net_326:7 0.2132
10 net_326:7 inst_63:B 0.3448
11 net_326:4 net_326:8 0.0277
12 net_326:8 inst_977:A 0.2232
*END

*D_NET net_353 0.7059
*CONN
*I TAUGATE_35:Z O
*I inst_183:A I
*CAP
1 TAUGATE_35:Z 0.3825
2 net_353:1 0.0258
3 net_353:2 0.0722
4 net_353:3 0.0268
5 net_353:4 0.0274
6 net_353:5 0.0955
7 inst_183:A 0.0758
*RES
2 TAUGATE_35:Z net_353:1 0.0730
3 net_353:1 net_353:2 0.2996
4 net_353:2 net_353:3 0.1500
5 net_353:3 net_353:4 0.2720
6 net_353:4 net_353:5 0.0605
7 net_353:5 inst_183:A 0.1555
*END

*D_NET net_822 2.4459
*CONN
*I TAUGATE_226:Z O
*I inst_591:A2 I
*I inst_592:A2 I
*CAP
1 TAUGATE_226:Z 0.2976
2 net_822:1 0.0316
3 net_822:2 0.1823
4 net_822:3 0.0755
5 net_822:4 0.3163
6 inst_592:A2 0.3515
7 net_822:5 0.0188
8 net_822:6 0.4709
9 net_822:7 0.4204
10 net_822:8 0.0122
11 inst_591:A2 0.2688
*RES
2 TAUGATE_226:Z net_822:1 0.2983
3 net_822:1 net_822:2 0.4269
4 net_822:2 net_822:3 0.0493
5 net_822:3 net_822:4 0.0341
6 net_822:4 inst_592:A2 0.3020
7 net_822:4 net_822:5 0.0936
8 net_822:5 net_822:6 0.3051
9 net_822:6 net_822:7 0.1197
10 net_822:7 net_822:8 0.2956
11 net_822:8 inst_591:A2 0.2210
*END

*D_NET net_707 1.0352
*CONN
*I inst_191:ZN O
*I inst_546:A3 I
*CAP
1 inst_191:ZN 0.2798
2 net_707:1 0.0137
3 net_707:2 0.2108
4 net_707:3 0.3101
5 net_707:4 0.0161
6 inst_546:A3 0.2047
*RES
2 inst_191:ZN net_707:1 0.3729
3 net_707:1 net_707:2 0.0610
4 net_707:2 net_707:3 0.4010
5 net_707:3 net_707:4 0.2910
6 net_707:4 inst_546:A3 0.3768
*END

*D_NET net_100 1.4722
*CONN
*I inst_375:ZN O
*I inst_397:A2 I
*CAP
1 inst_375:ZN 0.1250
2 net_100:1 0.3715
3 net_100:2 0.3144
4 net_100:3 0.3618
5 net_100:4 0.0820
6 inst_397:A2 0.2174
*RES
2 inst_375:ZN net_100:1 0.3638
3 net_100:1 net_100:2 0.4097
4 net_100:2 net_100:3 0.2418
5 net_100:3 net_100:4 0.4080
6 net_100:4 inst_397:A2 0.3118
*END

*D_NET net_801 1.5302
*CONN
*I inst_219:ZN O
*I inst_233:A I
*CAP
1 inst_219:ZN 0.3134
2 net_801:1 0.1396
3 net_801:2 0.0910
4 net_801:3 0.1278
5 net_801:4 0.3093
6 net_801:5 0.3342
7 inst_233:A 0.2150
*RES
2 inst_219:ZN net_801:1 0.0109
3 net_801:1 net_801:2 0.1830
4 net_801:2 net_801:3 0.2298
5 net_801:3 net_801:4 0.0712
6 net_801:4 net_801:5 0.0044
7 net_801:5 inst_233:A 0.1986
*END

*D_NET net_85 0.3301
*CONN
*I inst_361:ZN O
*I inst_389:A2 I
*CAP
1 inst_361:ZN 0.0521
2 net_85:1 0.0043
3 inst_389:A2 0.2737
*RES
2 inst_361:ZN net_85:1 0.4724
3 net_85:1 inst_389:A2 0.2677
*END

*D_NET net_655 2.3123
*CONN
*I inst_767:ZN O
*I inst_583:A3 I
*I inst_790:A1 I
*CAP
1 inst_767:ZN 0.1466
2 net_655:1 0.2008
3 net_655:2 0.3776
4 net_655:3 0.2937
5 inst_583:A3 0.0093
6 net_655:4 0.3242
7 net_655:5 0.2336
8 net_655:6 0.3863
9 net_655:7 0.2365
10 inst_790:A1 0.1037
*RES
2 inst_767:ZN net_655:1 0.2822
3 net_655:1 net_655:2 0.4311
4 net_655:2 net_655:3 0.0309
5 net_655:3 inst_583:A3 0.1138
6 net_655:3 net_655:4 0.3572
7 net_655:4 net_655:5 0.2211
8 net_655:5 net_655:6 0.2185
9 net_655:6 net_655:7 0.2266
10 net_655:7 inst_790:A1 0.2538
*END

*D_NET n526 1.8250
*CONN
*I TAUGATE_53:Z O
*P n526 O
*CAP
1 TAUGATE_53:Z 0.4791
2 n526:1 0.2444
3 n526:2 0.4262
4 n526:3 0.3737
5 n526 0.3015
*RES
2 TAUGATE_53:Z n526:1 0.1830
3 n526:1 n526:2 0.3035
4 n526:2 n526:3 0.4053
5 n526:3 n526 0.0863
*END

*D_NET net_263 0.8541
*CONN
*I inst_19:Z O
*I inst_152:A I
*CAP
1 inst_19:Z 0.1365
2 net_263:1 0.4263
3 inst_152:A 0.2912
*RES
2 inst_19:Z net_263:1 0.1111
3 net_263:1 inst_152:A 0.3711
*END

*D_NET net_652 0.6095
*CONN
*I inst_1031:ZN O
*I inst_845:A1 I
*CAP
1 inst_1031:ZN 0.1351
2 net_652:1 0.0368
3 inst_845:A1 0.4376
*RES
2 inst_1031:ZN net_652:1 0.1423
3 net_652:1 inst_845:A1 0.1283
*END

*D_NET net_838 2.2451
*CONN
*I inst_224:ZN O
*I inst_243:A I
*CAP
1 inst_224:ZN 0.3234
2 net_838:1 0.4832
3 net_838:2 0.2776
4 net_838:3 0.3781
5 net_838:4 0.3766
6 net_838:5 0.0185
7 inst_243:A 0.3877
*RES
2 inst_224:ZN net_838:1 0.1588
3 net_838:1 net_838:2 0.3738
4 net_838:2 net_838:3 0.4556
5 net_838:3 net_838:4 0.1835
6 net_838:4 net_838:5 0.0020
7 net_838:5 inst_243:A 0.2614
*END

*D_NET net_686 1.4224
*CONN
*I inst_1137:ZN O
*I inst_79:A I
*CAP
1 inst_1137:ZN 0.2164
2 net_686:1 0.1158
3 net_686:2 0.1153
4 net_686:3 0.3810
5 net_686:4 0.1100
6 net_686:5 0.1662
7 inst_79:A 0.3178
*RES
2 inst_1137:ZN net_686:1 0.2541
3 net_686:1 net_686:2 0.2497
4 net_686:2 net_686:3 0.4625
5 net_686:3 net_686:4 0.2343
6 net_686:4 net_686:5 0.0981
7 net_686:5 inst_79:A 0.3461
*END

*D_NET TAUNET_1345 4.4471
*CONN
*I TAUGATE_1158:Z O
*I TAUGATE_1345:A I
*I inst_749:A1 I
*I inst_134:B I
*I inst_411:A1 I
*I inst_949:A I
*CAP
1 TAUGATE_1158:Z 0.4109
2 TAUNET_1345:1 0.2326
3 inst_134:B 0.0121
4 TAUNET_1345:2 0.0138
5 TAUNET_1345:3 0.4527
6 inst_749:A1 0.3131
7 TAUNET_1345:4 0.4199
8 TAUNET_1345:5 0.3736
9 TAUNET_1345:6 0.3306
10 TAUGATE_1345:A 0.3042
11 TAUNET_1345:7 0.0262
12 inst_411:A1 0.3812
13 TAUNET_1345:8 0.3805
14 TAUNET_1345:9 0.2523
15 TAUNET_1345:10 0.0497
16 inst_949:A 0.4938
*RES
2 TAUGATE_1158:Z TAUNET_1345:1 0.2674
3 TAUNET_1345:1 inst_134:B 0.2072
4 TAUNET_1345:1 TAUNET_1345:2 0.4392
5 TAUNET_1345:2 TAUNET_1345:3 0.4048
6 TAUNET_1345:3 inst_749:A1 0.0368
7 TAUNET_1345:2 TAUNET_1345:4 0.1317
8 TAUNET_1345:4 TAUNET_1345:5 0.1481
9 TAUNET_1345:5 TAUNET_1345:6 0.2485
10 TAUNET_1345:6 TAUGATE_1345:A 0.2201
11 TAUNET_1345:4 TAUNET_1345:7 0.0656
12 TAUNET_1345:7 inst_411:A1 0.1550
13 TAUNET_1345:2 TAUNET_1345:8 0.3913
14 TAUNET_1345:8 TAUNET_1345:9 0.2131
15 TAUNET_1345:9 TAUNET_1345:10 0.3201
16 TAUNET_1345:10 inst_949:A 0.0320
*END

*D_NET net_404 2.6988
*CONN
*I inst_989:ZN O
*I inst_432:A2 I
*I inst_757:A2 I
*CAP
1 inst_989:ZN 0.3378
2 net_404:1 0.2454
3 net_404:2 0.4527
4 net_404:3 0.2663
5 net_404:4 0.3641
6 net_404:5 0.1740
7 inst_757:A2 0.2701
8 net_404:6 0.0751
9 net_404:7 0.1227
10 net_404:8 0.0294
11 net_404:9 0.0059
12 inst_432:A2 0.3552
*RES
2 inst_989:ZN net_404:1 0.3351
3 net_404:1 net_404:2 0.4105
4 net_404:2 net_404:3 0.3004
5 net_404:3 net_404:4 0.3665
6 net_404:4 net_404:5 0.1341
7 net_404:5 inst_757:A2 0.0859
8 net_404:2 net_404:6 0.3839
9 net_404:6 net_404:7 0.1840
10 net_404:7 net_404:8 0.4010
11 net_404:8 net_404:9 0.3573
12 net_404:9 inst_432:A2 0.4559
*END

*D_NET net_160 2.8028
*CONN
*I inst_662:ZN O
*I inst_712:A2 I
*I inst_1109:A2 I
*CAP
1 inst_662:ZN 0.1715
2 net_160:1 0.3594
3 net_160:2 0.4902
4 net_160:3 0.4716
5 net_160:4 0.2112
6 inst_1109:A2 0.1762
7 net_160:5 0.4669
8 net_160:6 0.1932
9 net_160:7 0.0675
10 net_160:8 0.0053
11 net_160:9 0.1459
12 inst_712:A2 0.0437
*RES
2 inst_662:ZN net_160:1 0.1166
3 net_160:1 net_160:2 0.1660
4 net_160:2 net_160:3 0.2177
5 net_160:3 net_160:4 0.2908
6 net_160:4 inst_1109:A2 0.3318
7 net_160:3 net_160:5 0.4598
8 net_160:5 net_160:6 0.3838
9 net_160:6 net_160:7 0.2033
10 net_160:7 net_160:8 0.3263
11 net_160:8 net_160:9 0.4574
12 net_160:9 inst_712:A2 0.4683
*END

*D_NET net_832 3.6707
*CONN
*I inst_538:ZN O
*I inst_493:A1 I
*I inst_497:A1 I
*CAP
1 inst_538:ZN 0.4873
2 net_832:1 0.4800
3 net_832:2 0.4518
4 inst_493:A1 0.0570
5 net_832:3 0.2594
6 net_832:4 0.3565
7 net_832:5 0.4074
8 net_832:6 0.4309
9 net_832:7 0.4474
10 inst_497:A1 0.2931
*RES
2 inst_538:ZN net_832:1 0.4909
3 net_832:1 net_832:2 0.0572
4 net_832:2 inst_493:A1 0.5008
5 net_832:1 net_832:3 0.2848
6 net_832:3 net_832:4 0.2246
7 net_832:4 net_832:5 0.3320
8 net_832:5 net_832:6 0.3870
9 net_832:6 net_832:7 0.3663
10 net_832:7 inst_497:A1 0.1512
*END

*D_NET net_115 3.5883
*CONN
*I TAUGATE_9:Z O
*I inst_743:A1 I
*I inst_877:A I
*CAP
1 TAUGATE_9:Z 0.4493
2 net_115:1 0.2866
3 net_115:2 0.1873
4 net_115:3 0.1599
5 net_115:4 0.3589
6 net_115:5 0.4697
7 inst_743:A1 0.4844
8 net_115:6 0.1285
9 net_115:7 0.0491
10 net_115:8 0.3511
11 net_115:9 0.2111
12 net_115:10 0.3010
13 inst_877:A 0.1515
*RES
2 TAUGATE_9:Z net_115:1 0.0401
3 net_115:1 net_115:2 0.2861
4 net_115:2 net_115:3 0.1883
5 net_115:3 net_115:4 0.3075
6 net_115:4 net_115:5 0.0604
7 net_115:5 inst_743:A1 0.3908
8 net_115:4 net_115:6 0.0492
9 net_115:6 net_115:7 0.2707
10 net_115:7 net_115:8 0.0711
11 net_115:8 net_115:9 0.2365
12 net_115:9 net_115:10 0.0021
13 net_115:10 inst_877:A 0.2080
*END

*D_NET TAUNET_50 2.0999
*CONN
*I inst_885:Z O
*I TAUGATE_50:A I
*CAP
1 inst_885:Z 0.4886
2 TAUNET_50:1 0.4404
3 TAUNET_50:2 0.3187
4 TAUNET_50:3 0.4272
5 TAUNET_50:4 0.0224
6 TAUGATE_50:A 0.4026
*RES
2 inst_885:Z TAUNET_50:1 0.2784
3 TAUNET_50:1 TAUNET_50:2 0.1803
4 TAUNET_50:2 TAUNET_50:3 0.0882
5 TAUNET_50:3 TAUNET_50:4 0.2924
6 TAUNET_50:4 TAUGATE_50:A 0.4780
*END

*D_NET net_689 1.0540
*CONN
*I inst_798:ZN O
*I inst_585:A1 I
*CAP
1 inst_798:ZN 0.1182
2 net_689:1 0.1530
3 net_689:2 0.2582
4 net_689:3 0.4484
5 inst_585:A1 0.0762
*RES
2 inst_798:ZN net_689:1 0.1986
3 net_689:1 net_689:2 0.3922
4 net_689:2 net_689:3 0.3950
5 net_689:3 inst_585:A1 0.2666
*END

*D_NET n3723 4.8736
*CONN
*P n3723 I
*I inst_67:A I
*I inst_1052:A I
*I inst_427:A1 I
*I inst_929:A I
*CAP
1 n3723 0.4671
2 n3723:1 0.3936
3 n3723:2 0.4880
4 n3723:3 0.4169
5 inst_929:A 0.3167
6 n3723:4 0.1908
7 n3723:5 0.1996
8 n3723:6 0.3123
9 inst_1052:A 0.1251
10 n3723:7 0.3466
11 n3723:8 0.4948
12 n3723:9 0.4038
13 n3723:10 0.1954
14 inst_427:A1 0.0063
15 n3723:11 0.2231
16 inst_67:A 0.2934
*RES
2 n3723 n3723:1 0.3376
3 n3723:1 n3723:2 0.1073
4 n3723:2 n3723:3 0.3579
5 n3723:3 inst_929:A 0.1300
6 n3723:3 n3723:4 0.0048
7 n3723:4 n3723:5 0.3126
8 n3723:5 n3723:6 0.0195
9 n3723:6 inst_1052:A 0.0541
10 n3723:5 n3723:7 0.4904
11 n3723:7 n3723:8 0.0915
12 n3723:8 n3723:9 0.4619
13 n3723:9 n3723:10 0.1065
14 n3723:10 inst_427:A1 0.1990
15 n3723:6 n3723:11 0.0661
16 n3723:11 inst_67:A 0.0281
*END

*D_NET TAUNET_1434 0.7745
*CONN
*I TAUGATE_1454:Z O
*I TAUGATE_1434:A I
*CAP
1 TAUGATE_1454:Z 0.2539
2 TAUNET_1434:1 0.1980
3 TAUGATE_1434:A 0.3226
*RES
2 TAUGATE_1454:Z TAUNET_1434:1 0.1282
3 TAUNET_1434:1 TAUGATE_1434:A 0.2766
*END

*D_NET net_511 7.0613
*CONN
*I inst_1005:ZN O
*I inst_437:A2 I
*I inst_320:A2 I
*I inst_167:B I
*I inst_72:A I
*I inst_168:B I
*CAP
1 inst_1005:ZN 0.4267
2 net_511:1 0.3295
3 net_511:2 0.4724
4 net_511:3 0.4631
5 net_511:4 0.0407
6 net_511:5 0.4130
7 inst_168:B 0.3462
8 net_511:6 0.0346
9 net_511:7 0.4333
10 net_511:8 0.0645
11 inst_320:A2 0.3416
12 net_511:9 0.2746
13 net_511:10 0.4228
14 inst_167:B 0.1417
15 net_511:11 0.4926
16 net_511:12 0.0580
17 net_511:13 0.3810
18 net_511:14 0.2195
19 net_511:15 0.2042
20 inst_72:A 0.2030
21 net_511:16 0.0857
22 net_511:17 0.2654
23 net_511:18 0.2245
24 net_511:19 0.4797
25 net_511:20 0.0551
26 inst_437:A2 0.1877
*RES
2 inst_1005:ZN net_511:1 0.0714
3 net_511:1 net_511:2 0.2110
4 net_511:2 net_511:3 0.2588
5 net_511:3 net_511:4 0.0339
6 net_511:4 net_511:5 0.0519
7 net_511:5 inst_168:B 0.4874
8 net_511:3 net_511:6 0.4099
9 net_511:6 net_511:7 0.1540
10 net_511:7 net_511:8 0.0325
11 net_511:8 inst_320:A2 0.0924
12 net_511:4 net_511:9 0.3754
13 net_511:9 net_511:10 0.2016
14 net_511:10 inst_167:B 0.0068
15 net_511:5 net_511:11 0.2656
16 net_511:11 net_511:12 0.4413
17 net_511:12 net_511:13 0.1336
18 net_511:13 net_511:14 0.4042
19 net_511:14 net_511:15 0.0451
20 net_511:15 inst_72:A 0.2391
21 net_511:1 net_511:16 0.0973
22 net_511:16 net_511:17 0.4235
23 net_511:17 net_511:18 0.1903
24 net_511:18 net_511:19 0.2143
25 net_511:19 net_511:20 0.0701
26 net_511:20 inst_437:A2 0.2421
*END

*D_NET net_393 1.3496
*CONN
*I inst_142:ZN O
*I inst_200:A I
*CAP
1 inst_142:ZN 0.2497
2 net_393:1 0.3086
3 net_393:2 0.2353
4 net_393:3 0.4838
5 inst_200:A 0.0722
*RES
2 inst_142:ZN net_393:1 0.3539
3 net_393:1 net_393:2 0.3446
4 net_393:2 net_393:3 0.0192
5 net_393:3 inst_200:A 0.1341
*END

*D_NET net_751 6.2738
*CONN
*I inst_413:ZN O
*I inst_778:A1 I
*I inst_1112:A1 I
*I inst_205:A I
*I inst_576:A2 I
*I inst_511:A1 I
*CAP
1 inst_413:ZN 0.3681
2 net_751:1 0.1561
3 net_751:2 0.1347
4 net_751:3 0.0224
5 net_751:4 0.3933
6 net_751:5 0.2244
7 inst_511:A1 0.4154
8 net_751:6 0.4589
9 net_751:7 0.0098
10 net_751:8 0.3264
11 net_751:9 0.2846
12 net_751:10 0.4721
13 inst_1112:A1 0.1185
14 net_751:11 0.3155
15 net_751:12 0.4909
16 inst_205:A 0.2285
17 net_751:13 0.2112
18 net_751:14 0.3238
19 inst_576:A2 0.1536
20 net_751:15 0.0018
21 net_751:16 0.2665
22 net_751:17 0.4580
23 inst_778:A1 0.4392
*RES
2 inst_413:ZN net_751:1 0.1374
3 net_751:1 net_751:2 0.1713
4 net_751:2 net_751:3 0.2153
5 net_751:3 net_751:4 0.3119
6 net_751:4 net_751:5 0.4918
7 net_751:5 inst_511:A1 0.3583
8 net_751:3 net_751:6 0.4585
9 net_751:6 net_751:7 0.3703
10 net_751:7 net_751:8 0.0365
11 net_751:8 net_751:9 0.4409
12 net_751:9 net_751:10 0.4335
13 net_751:10 inst_1112:A1 0.3158
14 net_751:4 net_751:11 0.2293
15 net_751:11 net_751:12 0.4514
16 net_751:12 inst_205:A 0.1489
17 net_751:9 net_751:13 0.2744
18 net_751:13 net_751:14 0.3973
19 net_751:14 inst_576:A2 0.0682
20 net_751:3 net_751:15 0.4660
21 net_751:15 net_751:16 0.3296
22 net_751:16 net_751:17 0.2711
23 net_751:17 inst_778:A1 0.1177
*END

*D_NET net_4 1.8034
*CONN
*I inst_927:ZN O
*I inst_875:A I
*CAP
1 inst_927:ZN 0.0719
2 net_4:1 0.3837
3 net_4:2 0.4308
4 net_4:3 0.4593
5 inst_875:A 0.4578
*RES
2 inst_927:ZN net_4:1 0.1666
3 net_4:1 net_4:2 0.4235
4 net_4:2 net_4:3 0.2000
5 net_4:3 inst_875:A 0.4330
*END

*D_NET net_17 1.0233
*CONN
*I inst_946:ZN O
*I inst_861:B I
*CAP
1 inst_946:ZN 0.3945
2 net_17:1 0.0632
3 net_17:2 0.3389
4 inst_861:B 0.2267
*RES
2 inst_946:ZN net_17:1 0.0022
3 net_17:1 net_17:2 0.3986
4 net_17:2 inst_861:B 0.0342
*END

*D_NET net_901 1.0177
*CONN
*I inst_335:ZN O
*I inst_593:A3 I
*CAP
1 inst_335:ZN 0.1342
2 net_901:1 0.4466
3 net_901:2 0.0789
4 net_901:3 0.1418
5 inst_593:A3 0.2162
*RES
2 inst_335:ZN net_901:1 0.3480
3 net_901:1 net_901:2 0.3423
4 net_901:2 net_901:3 0.3091
5 net_901:3 inst_593:A3 0.3077
*END

*D_NET net_542 1.4193
*CONN
*I inst_1129:ZN O
*I inst_476:A1 I
*CAP
1 inst_1129:ZN 0.3818
2 net_542:1 0.3632
3 net_542:2 0.2277
4 net_542:3 0.1399
5 inst_476:A1 0.3067
*RES
2 inst_1129:ZN net_542:1 0.2194
3 net_542:1 net_542:2 0.0694
4 net_542:2 net_542:3 0.1731
5 net_542:3 inst_476:A1 0.0340
*END

*D_NET n223 0.7505
*CONN
*P n223 I
*I inst_631:A2 I
*CAP
1 n223 0.0233
2 n223:1 0.4158
3 n223:2 0.0326
4 inst_631:A2 0.2788
*RES
2 n223 n223:1 0.2469
3 n223:1 n223:2 0.0975
4 n223:2 inst_631:A2 0.1398
*END

*D_NET net_447 0.7875
*CONN
*I inst_153:ZN O
*I inst_188:A I
*CAP
1 inst_153:ZN 0.2235
2 net_447:1 0.0538
3 net_447:2 0.1085
4 net_447:3 0.3839
5 inst_188:A 0.0178
*RES