*SPEF "IEEE 1481-1998"
*DESIGN "changes"
*DATE "Tue Dec 02 20:45:18 2014"
*VENDOR "TAU 2015 Contest"
*PROGRAM "Benchmark Parasitic Generator"
*VERSION "0.0"
*DESIGN_FLOW "NETLIST_TYPE_VERILOG"
*DIVIDER /
*DELIMITER :
*BUS_DELIMITER [ ]
*T_UNIT 1 PS
*C_UNIT 1 FF
*R_UNIT 1 KOHM
*L_UNIT 1 UH

*D_NET n408 3.0173
*CONN
*I TAUGATE_557:Z O
*P n408 O
*I inst_305:A2 I
*CAP
1 TAUGATE_557:Z 0.2611
2 n408:1 0.4098
3 n408:2 0.5009
4 n408:3 0.2843
5 n408 0.2878
6 n408:4 0.4685
7 n408:5 0.3070
8 n408:6 0.3583
9 inst_305:A2 0.1395
*RES
2 TAUGATE_557:Z n408:1 0.1659
3 n408:1 n408:2 0.2742
4 n408:2 n408:3 0.3494
5 n408:3 n408 0.1485
6 n408:3 n408:4 0.0646
7 n408:4 n408:5 0.0794
8 n408:5 n408:6 0.2161
9 n408:6 inst_305:A2 0.1614
*END

*D_NET TAUNET_1032 1.8183
*CONN
*I inst_333:ZN O
*I TAUGATE_1032:A I
*CAP
1 inst_333:ZN 0.3755
2 TAUNET_1032:1 0.4559
3 TAUNET_1032:2 0.4050
4 TAUNET_1032:3 0.0154
5 TAUNET_1032:4 0.1670
6 TAUNET_1032:5 0.1555
7 TAUGATE_1032:A 0.2440
*RES
2 inst_333:ZN TAUNET_1032:1 0.0332
3 TAUNET_1032:1 TAUNET_1032:2 0.0406
4 TAUNET_1032:2 TAUNET_1032:3 0.2732
5 TAUNET_1032:3 TAUNET_1032:4 0.0073
6 TAUNET_1032:4 TAUNET_1032:5 0.1308
7 TAUNET_1032:5 TAUGATE_1032:A 0.1374
*END

*D_NET TAUNET_1228 1.3529
*CONN
*I inst_512:ZN O
*I TAUGATE_1228:A I
*CAP
1 inst_512:ZN 0.3706
2 TAUNET_1228:1 0.4871
3 TAUGATE_1228:A 0.4951
*RES
2 inst_512:ZN TAUNET_1228:1 0.4125
3 TAUNET_1228:1 TAUGATE_1228:A 0.0565
*END

*D_NET net_416 1.5997
*CONN
*I TAUGATE_848:Z O
*I inst_527:A1 I
*CAP
1 TAUGATE_848:Z 0.0292
2 net_416:1 0.4507
3 net_416:2 0.3356
4 net_416:3 0.3995
5 inst_527:A1 0.3845
*RES
2 TAUGATE_848:Z net_416:1 0.4708
3 net_416:1 net_416:2 0.3056
4 net_416:2 net_416:3 0.3464
5 net_416:3 inst_527:A1 0.0305
*END

*D_NET net_215 1.3804
*CONN
*I TAUGATE_343:Z O
*I inst_144:B I
*CAP
1 TAUGATE_343:Z 0.4020
2 net_215:1 0.2665
3 net_215:2 0.4354
4 net_215:3 0.1977
5 inst_144:B 0.0788
*RES
2 TAUGATE_343:Z net_215:1 0.3276
3 net_215:1 net_215:2 0.3833
4 net_215:2 net_215:3 0.3292
5 net_215:3 inst_144:B 0.0716
*END

*D_NET TAUNET_275 1.3846
*CONN
*I inst_608:ZN O
*I TAUGATE_275:A I
*CAP
1 inst_608:ZN 0.1922
2 TAUNET_275:1 0.1322
3 TAUNET_275:2 0.1905
4 TAUNET_275:3 0.4017
5 TAUGATE_275:A 0.4680
*RES
2 inst_608:ZN TAUNET_275:1 0.2976
3 TAUNET_275:1 TAUNET_275:2 0.2331
4 TAUNET_275:2 TAUNET_275:3 0.2927
5 TAUNET_275:3 TAUGATE_275:A 0.3943
*END

*D_NET net_933 1.0845
*CONN
*I TAUGATE_898:Z O
*I inst_843:A2 I
*CAP
1 TAUGATE_898:Z 0.1955
2 net_933:1 0.4889
3 net_933:2 0.0703
4 inst_843:A2 0.3298
*RES
2 TAUGATE_898:Z net_933:1 0.4131
3 net_933:1 net_933:2 0.3310
4 net_933:2 inst_843:A2 0.2621
*END

*D_NET TAUNET_885 0.9833
*CONN
*I inst_914:Z O
*I TAUGATE_885:A I
*CAP
1 inst_914:Z 0.1808
2 TAUNET_885:1 0.3990
3 TAUGATE_885:A 0.4035
*RES
2 inst_914:Z TAUNET_885:1 0.0219
3 TAUNET_885:1 TAUGATE_885:A 0.0830
*END

*D_NET net_943 3.2416
*CONN
*I TAUGATE_297:Z O
*I inst_900:B I
*I inst_899:A I
*CAP
1 TAUGATE_297:Z 0.1250
2 net_943:1 0.4976
3 net_943:2 0.3591
4 net_943:3 0.2780
5 net_943:4 0.2022
6 inst_899:A 0.1593
7 net_943:5 0.0632
8 net_943:6 0.2503
9 net_943:7 0.4700
10 net_943:8 0.3789
11 net_943:9 0.3545
12 inst_900:B 0.1033
*RES
2 TAUGATE_297:Z net_943:1 0.4382
3 net_943:1 net_943:2 0.3498
4 net_943:2 net_943:3 0.4055
5 net_943:3 net_943:4 0.4519
6 net_943:4 inst_899:A 0.4658
7 net_943:4 net_943:5 0.4316
8 net_943:5 net_943:6 0.1782
9 net_943:6 net_943:7 0.4734
10 net_943:7 net_943:8 0.0376
11 net_943:8 net_943:9 0.0972
12 net_943:9 inst_900:B 0.3594
*END

*D_NET TAUNET_232 1.4515
*CONN
*I inst_1008:ZN O
*I TAUGATE_232:A I
*CAP
1 inst_1008:ZN 0.3248
2 TAUNET_232:1 0.1267
3 TAUNET_232:2 0.3840
4 TAUNET_232:3 0.2434
5 TAUGATE_232:A 0.3726
*RES
2 inst_1008:ZN TAUNET_232:1 0.2980
3 TAUNET_232:1 TAUNET_232:2 0.2454
4 TAUNET_232:2 TAUNET_232:3 0.4670
5 TAUNET_232:3 TAUGATE_232:A 0.1921
*END

*D_NET net_429 0.9538
*CONN
*I TAUGATE_438:Z O
*I inst_784:A1 I
*CAP
1 TAUGATE_438:Z 0.4443
2 net_429:1 0.3022
3 net_429:2 0.1405
4 inst_784:A1 0.0668
*RES
2 TAUGATE_438:Z net_429:1 0.3699
3 net_429:1 net_429:2 0.4131
4 net_429:2 inst_784:A1 0.4004
*END

*D_NET net_129 0.9952
*CONN
*I TAUGATE_560:Z O
*I inst_350:A1 I
*CAP
1 TAUGATE_560:Z 0.1341
2 net_129:1 0.0282
3 net_129:2 0.3089
4 net_129:3 0.0253
5 net_129:4 0.3105
6 inst_350:A1 0.1881
*RES
2 TAUGATE_560:Z net_129:1 0.2034
3 net_129:1 net_129:2 0.1592
4 net_129:2 net_129:3 0.3147
5 net_129:3 net_129:4 0.2761
6 net_129:4 inst_350:A1 0.3643
*END

*D_NET net_373 6.1340
*CONN
*I TAUGATE_511:Z O
*I inst_920:A I
*I inst_14:A I
*I inst_116:A I
*I inst_1115:A1 I
*I inst_61:A I
*CAP
1 TAUGATE_511:Z 0.0666
2 net_373:1 0.3580
3 net_373:2 0.3774
4 net_373:3 0.2731
5 net_373:4 0.1525
6 inst_116:A 0.0518
7 net_373:5 0.2239
8 net_373:6 0.0917
9 inst_14:A 0.4230
10 net_373:7 0.3484
11 net_373:8 0.0801
12 net_373:9 0.1392
13 net_373:10 0.1891
14 net_373:11 0.0464
15 inst_920:A 0.0364
16 net_373:12 0.3388
17 net_373:13 0.4657
18 net_373:14 0.3595
19 net_373:15 0.2471
20 net_373:16 0.0832
21 inst_1115:A1 0.0580
22 net_373:17 0.4950
23 net_373:18 0.0413
24 net_373:19 0.4651
25 net_373:20 0.4065
26 inst_61:A 0.3164
*RES
2 TAUGATE_511:Z net_373:1 0.2548
3 net_373:1 net_373:2 0.2154
4 net_373:2 net_373:3 0.4921
5 net_373:3 net_373:4 0.1648
6 net_373:4 inst_116:A 0.1855
7 net_373:4 net_373:5 0.1494
8 net_373:5 net_373:6 0.3290
9 net_373:6 inst_14:A 0.1620
10 net_373:3 net_373:7 0.0279
11 net_373:7 net_373:8 0.4104
12 net_373:8 net_373:9 0.0649
13 net_373:9 net_373:10 0.0510
14 net_373:10 net_373:11 0.1600
15 net_373:11 inst_920:A 0.1748
16 net_373:3 net_373:12 0.3736
17 net_373:12 net_373:13 0.0395
18 net_373:13 net_373:14 0.3644
19 net_373:14 net_373:15 0.0829
20 net_373:15 net_373:16 0.1977
21 net_373:16 inst_1115:A1 0.4694
22 net_373:13 net_373:17 0.3513
23 net_373:17 net_373:18 0.1165
24 net_373:18 net_373:19 0.0986
25 net_373:19 net_373:20 0.2243
26 net_373:20 inst_61:A 0.1286
*END

*D_NET net_98 1.4306
*CONN
*I TAUGATE_175:Z O
*I inst_387:A2 I
*CAP
1 TAUGATE_175:Z 0.2482
2 net_98:1 0.1533
3 net_98:2 0.4091
4 net_98:3 0.2613
5 inst_387:A2 0.3587
*RES
2 TAUGATE_175:Z net_98:1 0.1869
3 net_98:1 net_98:2 0.4974
4 net_98:2 net_98:3 0.3047
5 net_98:3 inst_387:A2 0.1200
*END

*D_NET TAUNET_775 0.5270
*CONN
*P n115 I
*I TAUGATE_775:A I
*CAP
1 n115 0.1210
2 TAUNET_775:1 0.1014
3 TAUNET_775:2 0.0283
4 TAUGATE_775:A 0.2763
*RES
2 n115 TAUNET_775:1 0.2945
3 TAUNET_775:1 TAUNET_775:2 0.3177
4 TAUNET_775:2 TAUGATE_775:A 0.2101
*END

*D_NET net_151 2.9324
*CONN
*I TAUGATE_308:Z O
*I inst_716:A2 I
*I inst_703:A2 I
*CAP
1 TAUGATE_308:Z 0.2046
2 net_151:1 0.1317
3 net_151:2 0.3617
4 net_151:3 0.0856
5 net_151:4 0.3629
6 inst_703:A2 0.2821
7 net_151:5 0.2907
8 net_151:6 0.0362
9 net_151:7 0.4966
10 net_151:8 0.4101
11 inst_716:A2 0.2702
*RES
2 TAUGATE_308:Z net_151:1 0.3900
3 net_151:1 net_151:2 0.0557
4 net_151:2 net_151:3 0.1253
5 net_151:3 net_151:4 0.2716
6 net_151:4 inst_703:A2 0.3735
7 net_151:1 net_151:5 0.2135
8 net_151:5 net_151:6 0.0419
9 net_151:6 net_151:7 0.2773
10 net_151:7 net_151:8 0.0903
11 net_151:8 inst_716:A2 0.0485
*END

*D_NET net_980 1.4438
*CONN
*I TAUGATE_164:Z O
*I inst_281:B I
*CAP
1 TAUGATE_164:Z 0.4262
2 net_980:1 0.3114
3 net_980:2 0.3090
4 inst_281:B 0.3972
*RES
2 TAUGATE_164:Z net_980:1 0.4228
3 net_980:1 net_980:2 0.2443
4 net_980:2 inst_281:B 0.2458
*END

*D_NET TAUNET_1352 1.1068
*CONN
*I inst_186:ZN O
*I TAUGATE_1352:A I
*CAP
1 inst_186:ZN 0.1567
2 TAUNET_1352:1 0.2439
3 TAUNET_1352:2 0.2588
4 TAUGATE_1352:A 0.4474
*RES
2 inst_186:ZN TAUNET_1352:1 0.3528
3 TAUNET_1352:1 TAUNET_1352:2 0.0472
4 TAUNET_1352:2 TAUGATE_1352:A 0.4436
*END

*D_NET net_53 1.1986
*CONN
*I TAUGATE_1344:Z O
*I inst_702:A1 I
*CAP
1 TAUGATE_1344:Z 0.3275
2 net_53:1 0.4026
3 inst_702:A1 0.4684
*RES
2 TAUGATE_1344:Z net_53:1 0.2490
3 net_53:1 inst_702:A1 0.0579
*END

*D_NET net_356 4.6986
*CONN
*I TAUGATE_927:Z O
*I inst_55:A I
*I inst_56:B I
*I inst_733:A1 I
*CAP
1 TAUGATE_927:Z 0.2861
2 net_356:1 0.3875
3 net_356:2 0.4796
4 net_356:3 0.3740
5 net_356:4 0.1554
6 net_356:5 0.0209
7 inst_55:A 0.4380
8 net_356:6 0.2438
9 net_356:7 0.2969
10 net_356:8 0.3091
11 net_356:9 0.5006
12 net_356:10 0.2264
13 inst_56:B 0.3973
14 net_356:11 0.0562
15 net_356:12 0.0882
16 inst_733:A1 0.4386
*RES
2 TAUGATE_927:Z net_356:1 0.4130
3 net_356:1 net_356:2 0.4990
4 net_356:2 net_356:3 0.2134
5 net_356:3 net_356:4 0.1115
6 net_356:4 net_356:5 0.4947
7 net_356:5 inst_55:A 0.3666
8 net_356:3 net_356:6 0.2044
9 net_356:6 net_356:7 0.1531
10 net_356:7 net_356:8 0.3886
11 net_356:8 net_356:9 0.2618
12 net_356:9 net_356:10 0.2468
13 net_356:10 inst_56:B 0.4002
14 net_356:8 net_356:11 0.2715
15 net_356:11 net_356:12 0.0199
16 net_356:12 inst_733:A1 0.4145
*END

*D_NET net_452 2.4564
*CONN
*I TAUGATE_1253:Z O
*I inst_158:B I
*I inst_248:A I
*I inst_990:A I
*CAP
1 TAUGATE_1253:Z 0.1130
2 net_452:1 0.1939
3 net_452:2 0.1095
4 inst_158:B 0.0212
5 net_452:3 0.0526
6 net_452:4 0.2388
7 net_452:5 0.1787
8 inst_248:A 0.3603
9 net_452:6 0.4218
10 net_452:7 0.0848
11 net_452:8 0.0266
12 net_452:9 0.0274
13 net_452:10 0.4218
14 inst_990:A 0.2061
*RES
2 TAUGATE_1253:Z net_452:1 0.1417
3 net_452:1 net_452:2 0.2190
4 net_452:2 inst_158:B 0.4826
5 net_452:2 net_452:3 0.0603
6 net_452:3 net_452:4 0.0863
7 net_452:4 net_452:5 0.3102
8 net_452:5 inst_248:A 0.1239
9 net_452:5 net_452:6 0.2110
10 net_452:6 net_452:7 0.4583
11 net_452:7 net_452:8 0.3985
12 net_452:8 net_452:9 0.0145
13 net_452:9 net_452:10 0.0725
14 net_452:10 inst_990:A 0.4492
*END

*D_NET net_545 1.6557
*CONN
*I TAUGATE_84:Z O
*I inst_1134:A2 I
*CAP
1 TAUGATE_84:Z 0.3685
2 net_545:1 0.1801
3 net_545:2 0.2826
4 net_545:3 0.3420
5 net_545:4 0.0965
6 net_545:5 0.2555
7 inst_1134:A2 0.1304
*RES
2 TAUGATE_84:Z net_545:1 0.3675
3 net_545:1 net_545:2 0.4634
4 net_545:2 net_545:3 0.2869
5 net_545:3 net_545:4 0.1646
6 net_545:4 net_545:5 0.1182
7 net_545:5 inst_1134:A2 0.0327
*END

*D_NET TAUNET_995 1.4530
*CONN
*I inst_720:ZN O
*I TAUGATE_995:A I
*CAP
1 inst_720:ZN 0.3721
2 TAUNET_995:1 0.2376
3 TAUNET_995:2 0.1146
4 TAUNET_995:3 0.3081
5 TAUNET_995:4 0.1439
6 TAUNET_995:5 0.0264
7 TAUGATE_995:A 0.2502
*RES
2 inst_720:ZN TAUNET_995:1 0.2506
3 TAUNET_995:1 TAUNET_995:2 0.4486
4 TAUNET_995:2 TAUNET_995:3 0.0641
5 TAUNET_995:3 TAUNET_995:4 0.0138
6 TAUNET_995:4 TAUNET_995:5 0.0079
7 TAUNET_995:5 TAUGATE_995:A 0.0204
*END

*D_NET net_284 3.0641
*CONN
*I TAUGATE_168:Z O
*I inst_13:B I
*I inst_1097:A3 I
*I inst_29:A I
*CAP
1 TAUGATE_168:Z 0.1001
2 net_284:1 0.1704
3 net_284:2 0.2303
4 net_284:3 0.0121
5 inst_1097:A3 0.0620
6 net_284:4 0.4751
7 net_284:5 0.3195
8 net_284:6 0.4748
9 net_284:7 0.2505
10 inst_13:B 0.2036
11 net_284:8 0.2723
12 net_284:9 0.2079
13 net_284:10 0.2449
14 inst_29:A 0.0406
*RES
2 TAUGATE_168:Z net_284:1 0.0267
3 net_284:1 net_284:2 0.1278
4 net_284:2 net_284:3 0.1079
5 net_284:3 inst_1097:A3 0.3621
6 net_284:1 net_284:4 0.3990
7 net_284:4 net_284:5 0.0185
8 net_284:5 net_284:6 0.3777
9 net_284:6 net_284:7 0.2437
10 net_284:7 inst_13:B 0.3641
11 net_284:2 net_284:8 0.0917
12 net_284:8 net_284:9 0.0078
13 net_284:9 net_284:10 0.0227
14 net_284:10 inst_29:A 0.0264
*END

*D_NET TAUNET_1391 0.9773
*CONN
*P n211 I
*I TAUGATE_1391:A I
*CAP
1 n211 0.1906
2 TAUNET_1391:1 0.0937
3 TAUNET_1391:2 0.2944
4 TAUGATE_1391:A 0.3987
*RES
2 n211 TAUNET_1391:1 0.0209
3 TAUNET_1391:1 TAUNET_1391:2 0.1182
4 TAUNET_1391:2 TAUGATE_1391:A 0.1067
*END

*D_NET net_560 4.6815
*CONN
*I TAUGATE_917:Z O
*I inst_582:A2 I
*I inst_771:A1 I
*I inst_468:A1 I
*CAP
1 TAUGATE_917:Z 0.3672
2 net_560:1 0.1157
3 net_560:2 0.1901
4 net_560:3 0.2138
5 net_560:4 0.5008
6 net_560:5 0.2979
7 inst_468:A1 0.3428
8 net_560:6 0.3676
9 net_560:7 0.1603
10 net_560:8 0.4423
11 net_560:9 0.1159
12 net_560:10 0.4527
13 inst_771:A1 0.1465
14 net_560:11 0.1861
15 net_560:12 0.4367
16 inst_582:A2 0.3452
*RES
2 TAUGATE_917:Z net_560:1 0.2325
3 net_560:1 net_560:2 0.2733
4 net_560:2 net_560:3 0.1266
5 net_560:3 net_560:4 0.3814
6 net_560:4 net_560:5 0.1363
7 net_560:5 inst_468:A1 0.3277
8 net_560:4 net_560:6 0.1463
9 net_560:6 net_560:7 0.4621
10 net_560:7 net_560:8 0.4065
11 net_560:8 net_560:9 0.0227
12 net_560:9 net_560:10 0.2236
13 net_560:10 inst_771:A1 0.4114
14 net_560:1 net_560:11 0.0313
15 net_560:11 net_560:12 0.1217
16 net_560:12 inst_582:A2 0.0111
*END

*D_NET TAUNET_792 1.2561
*CONN
*I inst_459:ZN O
*I TAUGATE_792:A I
*CAP
1 inst_459:ZN 0.0613
2 TAUNET_792:1 0.4407
3 TAUNET_792:2 0.4978
4 TAUGATE_792:A 0.2563
*RES
2 inst_459:ZN TAUNET_792:1 0.2595
3 TAUNET_792:1 TAUNET_792:2 0.2603
4 TAUNET_792:2 TAUGATE_792:A 0.2874
*END

*D_NET TAUNET_91 1.0267
*CONN
*I inst_46:Z O
*I TAUGATE_91:A I
*CAP
1 inst_46:Z 0.2768
2 TAUNET_91:1 0.2053
3 TAUNET_91:2 0.2140
4 TAUGATE_91:A 0.3306
*RES
2 inst_46:Z TAUNET_91:1 0.1569
3 TAUNET_91:1 TAUNET_91:2 0.2580
4 TAUNET_91:2 TAUGATE_91:A 0.2138
*END

*D_NET TAUNET_625 2.1838
*CONN
*P n217 I
*I TAUGATE_625:A I
*CAP
1 n217 0.3806
2 TAUNET_625:1 0.4608
3 TAUNET_625:2 0.4692
4 TAUNET_625:3 0.4766
5 TAUNET_625:4 0.0589
6 TAUNET_625:5 0.0962
7 TAUGATE_625:A 0.2415
*RES
2 n217 TAUNET_625:1 0.1750
3 TAUNET_625:1 TAUNET_625:2 0.4103
4 TAUNET_625:2 TAUNET_625:3 0.0845
5 TAUNET_625:3 TAUNET_625:4 0.1888
6 TAUNET_625:4 TAUNET_625:5 0.1436
7 TAUNET_625:5 TAUGATE_625:A 0.1762
*END

*D_NET net_439 3.8028
*CONN
*I TAUGATE_200:Z O
*I inst_522:A2 I
*I inst_1127:A2 I
*I inst_759:A2 I
*I inst_1003:A I
*CAP
1 TAUGATE_200:Z 0.0806
2 net_439:1 0.2069
3 inst_1003:A 0.0491
4 net_439:2 0.1831
5 net_439:3 0.4110
6 net_439:4 0.0191
7 inst_1127:A2 0.3538
8 net_439:5 0.5010
9 net_439:6 0.3538
10 net_439:7 0.4649
11 net_439:8 0.0482
12 net_439:9 0.1062
13 inst_759:A2 0.2963
14 net_439:10 0.0470
15 net_439:11 0.0745
16 net_439:12 0.1738
17 inst_522:A2 0.4336
*RES
2 TAUGATE_200:Z net_439:1 0.4137
3 net_439:1 inst_1003:A 0.3046
4 net_439:1 net_439:2 0.4300
5 net_439:2 net_439:3 0.3629
6 net_439:3 net_439:4 0.0787
7 net_439:4 inst_1127:A2 0.2007
8 net_439:3 net_439:5 0.4911
9 net_439:5 net_439:6 0.2002
10 net_439:6 net_439:7 0.2573
11 net_439:7 net_439:8 0.3761
12 net_439:8 net_439:9 0.0616
13 net_439:9 inst_759:A2 0.4298
14 net_439:5 net_439:10 0.4556
15 net_439:10 net_439:11 0.1284
16 net_439:11 net_439:12 0.0036
17 net_439:12 inst_522:A2 0.1731
*END

*D_NET TAUNET_1159 2.1141
*CONN
*I inst_820:ZN O
*I TAUGATE_1159:A I
*CAP
1 inst_820:ZN 0.3095
2 TAUNET_1159:1 0.4033
3 TAUNET_1159:2 0.2734
4 TAUNET_1159:3 0.3461
5 TAUNET_1159:4 0.3729
6 TAUNET_1159:5 0.0418
7 TAUGATE_1159:A 0.3671
*RES
2 inst_820:ZN TAUNET_1159:1 0.3815
3 TAUNET_1159:1 TAUNET_1159:2 0.1458
4 TAUNET_1159:2 TAUNET_1159:3 0.4915
5 TAUNET_1159:3 TAUNET_1159:4 0.0683
6 TAUNET_1159:4 TAUNET_1159:5 0.2135
7 TAUNET_1159:5 TAUGATE_1159:A 0.4484
*END

*D_NET TAUNET_603 0.3477
*CONN
*P n5 I
*I TAUGATE_603:A I
*CAP
1 n5 0.1139
2 TAUNET_603:1 0.0861
3 TAUGATE_603:A 0.1477
*RES
2 n5 TAUNET_603:1 0.4806
3 TAUNET_603:1 TAUGATE_603:A 0.3473
*END

*D_NET net_259 2.8119
*CONN
*I TAUGATE_685:Z O
*I inst_18:A I
*I inst_4:B I
*I inst_565:A1 I
*CAP
1 TAUGATE_685:Z 0.0198
2 net_259:1 0.1100
3 net_259:2 0.2818
4 net_259:3 0.3290
5 inst_18:A 0.1592
6 net_259:4 0.0096
7 net_259:5 0.4963
8 inst_4:B 0.2377
9 net_259:6 0.2352
10 net_259:7 0.3112
11 net_259:8 0.1345
12 net_259:9 0.4134
13 inst_565:A1 0.0741
*RES
2 TAUGATE_685:Z net_259:1 0.4236
3 net_259:1 net_259:2 0.3328
4 net_259:2 net_259:3 0.1906
5 net_259:3 inst_18:A 0.5003
6 net_259:3 net_259:4 0.2571
7 net_259:4 net_259:5 0.3610
8 net_259:5 inst_4:B 0.0042
9 net_259:5 net_259:6 0.4290
10 net_259:6 net_259:7 0.4891
11 net_259:7 net_259:8 0.0621
12 net_259:8 net_259:9 0.2122
13 net_259:9 inst_565:A1 0.2034
*END

*D_NET TAUNET_1184 0.9541
*CONN
*P n162 I
*I TAUGATE_1184:A I
*CAP
1 n162 0.2112
2 TAUNET_1184:1 0.1106
3 TAUNET_1184:2 0.0283
4 TAUNET_1184:3 0.2644
5 TAUGATE_1184:A 0.3395
*RES
2 n162 TAUNET_1184:1 0.4160
3 TAUNET_1184:1 TAUNET_1184:2 0.1311
4 TAUNET_1184:2 TAUNET_1184:3 0.1702
5 TAUNET_1184:3 TAUGATE_1184:A 0.0535
*END

*D_NET TAUNET_689 1.0831
*CONN
*I inst_1056:Z O
*I TAUGATE_689:A I
*CAP
1 inst_1056:Z 0.2939
2 TAUNET_689:1 0.0520
3 TAUNET_689:2 0.1787
4 TAUNET_689:3 0.3277
5 TAUGATE_689:A 0.2308
*RES
2 inst_1056:Z TAUNET_689:1 0.1825
3 TAUNET_689:1 TAUNET_689:2 0.4154
4 TAUNET_689:2 TAUNET_689:3 0.4205
5 TAUNET_689:3 TAUGATE_689:A 0.1921
*END

*D_NET TAUNET_784 1.3427
*CONN
*P n152 I
*I TAUGATE_784:A I
*CAP
1 n152 0.0500
2 TAUNET_784:1 0.2552
3 TAUNET_784:2 0.2397
4 TAUNET_784:3 0.3943
5 TAUNET_784:4 0.0450
6 TAUGATE_784:A 0.3586
*RES
2 n152 TAUNET_784:1 0.1804
3 TAUNET_784:1 TAUNET_784:2 0.2132
4 TAUNET_784:2 TAUNET_784:3 0.3448
5 TAUNET_784:3 TAUNET_784:4 0.2539
6 TAUNET_784:4 TAUGATE_784:A 0.0169
*END

*D_NET n560 0.6350
*CONN
*I TAUGATE_135:Z O
*P n560 O
*CAP
1 TAUGATE_135:Z 0.3418
2 n560:1 0.2232
3 n560 0.0700
*RES
2 TAUGATE_135:Z n560:1 0.3825
3 n560:1 n560 0.4916
*END

*D_NET TAUNET_826 0.1950
*CONN
*I inst_277:ZN O
*I TAUGATE_826:A I
*CAP
1 inst_277:ZN 0.0722
2 TAUNET_826:1 0.0274
3 TAUGATE_826:A 0.0955
*RES
2 inst_277:ZN TAUNET_826:1 0.0758
3 TAUNET_826:1 TAUGATE_826:A 0.0730
*END

*D_NET net_187 1.0982
*CONN
*I TAUGATE_457:Z O
*I inst_355:A2 I
*CAP
1 TAUGATE_457:Z 0.1500
2 net_187:1 0.0605
3 net_187:2 0.1555
4 net_187:3 0.4347
5 inst_355:A2 0.2976
*RES
2 TAUGATE_457:Z net_187:1 0.3531
3 net_187:1 net_187:2 0.0316
4 net_187:2 net_187:3 0.1823
5 net_187:3 inst_355:A2 0.0755
*END

*D_NET TAUNET_672 1.1637
*CONN
*I inst_236:ZN O
*I TAUGATE_672:A I
*CAP
1 inst_236:ZN 0.3515
2 TAUNET_672:1 0.4269
3 TAUNET_672:2 0.0493
4 TAUNET_672:3 0.0341
5 TAUGATE_672:A 0.3020
*RES
2 inst_236:ZN TAUNET_672:1 0.3389
3 TAUNET_672:1 TAUNET_672:2 0.4000
4 TAUNET_672:2 TAUNET_672:3 0.0188
5 TAUNET_672:3 TAUGATE_672:A 0.4709
*END

*D_NET net_264 3.3166
*CONN
*I TAUGATE_1005:Z O
*I inst_732:A1 I
*I inst_101:B I
*I inst_20:B I
*CAP
1 TAUGATE_1005:Z 0.0122
2 net_264:1 0.0936
3 net_264:2 0.3051
4 net_264:3 0.1197
5 inst_20:B 0.2956
6 net_264:4 0.0161
7 net_264:5 0.2047
8 net_264:6 0.3729
9 net_264:7 0.0610
10 inst_101:B 0.4010
11 net_264:8 0.3618
12 net_264:9 0.0820
13 net_264:10 0.2174
14 net_264:11 0.3638
15 inst_732:A1 0.4097
*RES
2 TAUGATE_1005:Z net_264:1 0.2210
3 net_264:1 net_264:2 0.0970
4 net_264:2 net_264:3 0.2798
5 net_264:3 inst_20:B 0.3150
6 net_264:2 net_264:4 0.2910
7 net_264:4 net_264:5 0.3768
8 net_264:5 net_264:6 0.3083
9 net_264:6 net_264:7 0.1250
10 net_264:7 inst_101:B 0.3526
11 net_264:6 net_264:8 0.2418
12 net_264:8 net_264:9 0.4080
13 net_264:9 net_264:10 0.3118
14 net_264:10 net_264:11 0.4981
15 net_264:11 inst_732:A1 0.3134
*END

*D_NET TAUNET_192 0.5767
*CONN
*P n177 I
*I TAUGATE_192:A I
*CAP
1 n177 0.1396
2 TAUNET_192:1 0.1278
3 TAUGATE_192:A 0.3093
*RES
2 n177 TAUNET_192:1 0.3342
3 TAUNET_192:1 TAUGATE_192:A 0.2150
*END

*D_NET TAUNET_141 0.5049
*CONN
*I inst_812:ZN O
*I TAUGATE_141:A I
*CAP
1 inst_812:ZN 0.1830
2 TAUNET_141:1 0.0712
3 TAUNET_141:2 0.0044
4 TAUNET_141:3 0.1986
5 TAUGATE_141:A 0.0476
*RES
2 inst_812:ZN TAUNET_141:1 0.0521
3 TAUNET_141:1 TAUNET_141:2 0.0546
4 TAUNET_141:2 TAUNET_141:3 0.0043
5 TAUNET_141:3 TAUGATE_141:A 0.2737
*END

*D_NET TAUNET_874 1.2711
*CONN
*I inst_258:ZN O
*I TAUGATE_874:A I
*CAP
1 inst_258:ZN 0.2677
2 TAUNET_874:1 0.1466
3 TAUNET_874:2 0.2784
4 TAUNET_874:3 0.2008
5 TAUGATE_874:A 0.3776
*RES
2 inst_258:ZN TAUNET_874:1 0.2937
3 TAUNET_874:1 TAUNET_874:2 0.0093
4 TAUNET_874:2 TAUNET_874:3 0.2822
5 TAUNET_874:3 TAUGATE_874:A 0.4311
*END

*D_NET n78 1.6512
*CONN
*I TAUGATE_1442:Z O
*I inst_856:B I
*CAP
1 TAUGATE_1442:Z 0.1138
2 n78:1 0.3567
3 n78:2 0.3242
4 n78:3 0.2336
5 n78:4 0.3863
6 inst_856:B 0.2365
*RES
2 TAUGATE_1442:Z n78:1 0.1037
3 n78:1 n78:2 0.3572
4 n78:2 n78:3 0.2211
5 n78:3 n78:4 0.2185
6 n78:4 inst_856:B 0.2266
*END

*D_NET TAUNET_1117 1.9002
*CONN
*I inst_556:ZN O
*I TAUGATE_1117:A I
*CAP
1 inst_556:ZN 0.1297
2 TAUNET_1117:1 0.2417
3 TAUNET_1117:2 0.2444
4 TAUNET_1117:3 0.4262
5 TAUNET_1117:4 0.3737
6 TAUNET_1117:5 0.3015
7 TAUGATE_1117:A 0.1830
*RES
2 inst_556:ZN TAUNET_1117:1 0.3035
3 TAUNET_1117:1 TAUNET_1117:2 0.4053
4 TAUNET_1117:2 TAUNET_1117:3 0.0863
5 TAUNET_1117:3 TAUNET_1117:4 0.2362
6 TAUNET_1117:4 TAUNET_1117:5 0.1365
7 TAUNET_1117:5 TAUGATE_1117:A 0.0277
*END

*D_NET net_263 0.8486
*CONN
*I TAUGATE_654:Z O
*I inst_152:A I
*CAP
1 TAUGATE_654:Z 0.2912
2 net_263:1 0.3711
3 net_263:2 0.0512
4 inst_152:A 0.1351
*RES
2 TAUGATE_654:Z net_263:1 0.0984
3 net_263:1 net_263:2 0.0368
4 net_263:2 inst_152:A 0.4376
*END

*D_NET net_160 2.5993
*CONN
*I TAUGATE_543:Z O
*I inst_712:A2 I
*I inst_1109:A2 I
*CAP
1 TAUGATE_543:Z 0.1283
2 net_160:1 0.3234
3 net_160:2 0.4610
4 inst_712:A2 0.4832
5 net_160:3 0.4556
6 net_160:4 0.1835
7 net_160:5 0.0020
8 net_160:6 0.2614
9 inst_1109:A2 0.3010
*RES
2 TAUGATE_543:Z net_160:1 0.2776
3 net_160:1 net_160:2 0.3781
4 net_160:2 inst_712:A2 0.3766
5 net_160:1 net_160:3 0.2164
6 net_160:3 net_160:4 0.4372
7 net_160:4 net_160:5 0.1158
8 net_160:5 net_160:6 0.1153
9 net_160:6 inst_1109:A2 0.3810
*END

*D_NET TAUNET_427 1.4651
*CONN
*I inst_887:Z O
*I TAUGATE_427:A I
*CAP
1 inst_887:Z 0.1662
2 TAUNET_427:1 0.2541
3 TAUNET_427:2 0.2497
4 TAUNET_427:3 0.4625
5 TAUNET_427:4 0.2343
6 TAUGATE_427:A 0.0981
*RES
2 inst_887:Z TAUNET_427:1 0.3461
3 TAUNET_427:1 TAUNET_427:2 0.2382
4 TAUNET_427:2 TAUNET_427:3 0.4109
5 TAUNET_427:3 TAUNET_427:4 0.0945
6 TAUNET_427:4 TAUGATE_427:A 0.2326
*END

*D_NET net_832 2.1933
*CONN
*I TAUGATE_273:Z O
*I inst_493:A1 I
*I inst_497:A1 I
*CAP
1 TAUGATE_273:Z 0.2674
2 net_832:1 0.0414
3 net_832:2 0.2455
4 net_832:3 0.1970
5 inst_493:A1 0.0138
6 net_832:4 0.4199
7 net_832:5 0.3736
8 net_832:6 0.3306
9 inst_497:A1 0.3042
*RES
2 TAUGATE_273:Z net_832:1 0.4527
3 net_832:1 net_832:2 0.3131
4 net_832:2 net_832:3 0.4392
5 net_832:3 inst_493:A1 0.4048
6 net_832:3 net_832:4 0.1317
7 net_832:4 net_832:5 0.1481
8 net_832:5 net_832:6 0.2485
9 net_832:6 inst_497:A1 0.2201
*END

*D_NET net_322 0.7087
*CONN
*I TAUGATE_594:Z O
*I inst_177:A I
*CAP
1 TAUGATE_594:Z 0.3013
2 net_322:1 0.0262
3 inst_177:A 0.3812
*RES
2 TAUGATE_594:Z net_322:1 0.0656
3 net_322:1 inst_177:A 0.1550
*END

*D_NET net_815 1.3180
*CONN
*I TAUGATE_138:Z O
*I inst_496:A2 I
*CAP
1 TAUGATE_138:Z 0.1418
2 net_815:1 0.3805
3 net_815:2 0.2523
4 net_815:3 0.0497
5 inst_496:A2 0.4938
*RES
2 TAUGATE_138:Z net_815:1 0.3913
3 net_815:1 net_815:2 0.2131
4 net_815:2 net_815:3 0.3201
5 net_815:3 inst_496:A2 0.0320
*END

*D_NET TAUNET_398 2.1105
*CONN
*I inst_592:ZN O
*I TAUGATE_398:A I
*CAP
1 inst_592:ZN 0.3378
2 TAUNET_398:1 0.2454
3 TAUNET_398:2 0.4527
4 TAUNET_398:3 0.2663
5 TAUNET_398:4 0.3641
6 TAUNET_398:5 0.1740
7 TAUGATE_398:A 0.2701
*RES
2 inst_592:ZN TAUNET_398:1 0.3351
3 TAUNET_398:1 TAUNET_398:2 0.4105
4 TAUNET_398:2 TAUNET_398:3 0.3004
5 TAUNET_398:3 TAUNET_398:4 0.3665
6 TAUNET_398:4 TAUNET_398:5 0.1341
7 TAUNET_398:5 TAUGATE_398:A 0.0859
*END

*D_NET net_420 0.5333
*CONN
*I TAUGATE_1271:Z O
*I inst_776:A2 I
*CAP
1 TAUGATE_1271:Z 0.3812
2 net_420:1 0.1227
3 inst_776:A2 0.0294
*RES
2 TAUGATE_1271:Z net_420:1 0.0059
3 net_420:1 inst_776:A2 0.3552
*END

*D_NET TAUNET_1026 2.1906
*CONN
*I inst_79:Z O
*I TAUGATE_1026:A I
*CAP
1 inst_79:Z 0.1840
2 TAUNET_1026:1 0.3573
3 TAUNET_1026:2 0.4559
4 TAUNET_1026:3 0.3575
5 TAUNET_1026:4 0.1715
6 TAUNET_1026:5 0.3050
7 TAUGATE_1026:A 0.3594
*RES
2 inst_79:Z TAUNET_1026:1 0.4902
3 TAUNET_1026:1 TAUNET_1026:2 0.4716
4 TAUNET_1026:2 TAUNET_1026:3 0.2112
5 TAUNET_1026:3 TAUNET_1026:4 0.1762
6 TAUNET_1026:4 TAUNET_1026:5 0.1166
7 TAUNET_1026:5 TAUGATE_1026:A 0.1660
*END

*D_NET TAUNET_546 1.7572
*CONN
*I inst_17:Z O
*I TAUGATE_546:A I
*CAP
1 inst_17:Z 0.2908
2 TAUNET_546:1 0.3308
3 TAUNET_546:2 0.4080
4 TAUNET_546:3 0.4669
5 TAUNET_546:4 0.1932
6 TAUGATE_546:A 0.0675
*RES
2 inst_17:Z TAUNET_546:1 0.0053
3 TAUNET_546:1 TAUNET_546:2 0.1459
4 TAUNET_546:2 TAUNET_546:3 0.0437
5 TAUNET_546:3 TAUNET_546:4 0.4598
6 TAUNET_546:4 TAUGATE_546:A 0.3838
*END

*D_NET TAUNET_1443 2.5348
*CONN
*I inst_715:ZN O
*I TAUGATE_1443:A I
*CAP
1 inst_715:ZN 0.3263
2 TAUNET_1443:1 0.4683
3 TAUNET_1443:2 0.1543
4 TAUNET_1443:3 0.4873
5 TAUNET_1443:4 0.1669
6 TAUNET_1443:5 0.4800
7 TAUGATE_1443:A 0.4518
*RES
2 inst_715:ZN TAUNET_1443:1 0.0570
3 TAUNET_1443:1 TAUNET_1443:2 0.4909
4 TAUNET_1443:2 TAUNET_1443:3 0.0572
5 TAUNET_1443:3 TAUNET_1443:4 0.5008
6 TAUNET_1443:4 TAUNET_1443:5 0.1013
7 TAUNET_1443:5 TAUGATE_1443:A 0.2457
*END

*D_NET net_665 2.1229
*CONN
*I TAUGATE_1099:Z O
*I inst_478:A2 I
*CAP
1 TAUGATE_1099:Z 0.2594
2 net_665:1 0.4074
3 net_665:2 0.4309
4 net_665:3 0.4474
5 net_665:4 0.2931
6 inst_478:A2 0.2848
*RES
2 TAUGATE_1099:Z net_665:1 0.2246
3 net_665:1 net_665:2 0.3320
4 net_665:2 net_665:3 0.3870
5 net_665:3 net_665:4 0.3663
6 net_665:4 inst_478:A2 0.1512
*END

*D_NET TAUNET_951 2.3961
*CONN
*I inst_91:ZN O
*I TAUGATE_951:A I
*CAP
1 inst_91:ZN 0.4493
2 TAUNET_951:1 0.2866
3 TAUNET_951:2 0.1873
4 TAUNET_951:3 0.1599
5 TAUNET_951:4 0.3589
6 TAUNET_951:5 0.4697
7 TAUGATE_951:A 0.4844
*RES
2 inst_91:ZN TAUNET_951:1 0.0401
3 TAUNET_951:1 TAUNET_951:2 0.2861
4 TAUNET_951:2 TAUNET_951:3 0.1883
5 TAUNET_951:3 TAUNET_951:4 0.3075
6 TAUNET_951:4 TAUNET_951:5 0.0604
7 TAUNET_951:5 TAUGATE_951:A 0.3908
*END

*D_NET TAUNET_862 1.0274
*CONN
*I inst_646:ZN O
*I TAUGATE_862:A I
*CAP
1 inst_646:ZN 0.4162
2 TAUNET_862:1 0.0491
3 TAUNET_862:2 0.3511
4 TAUGATE_862:A 0.2111
*RES
2 inst_646:ZN TAUNET_862:1 0.3010
3 TAUNET_862:1 TAUNET_862:2 0.1515
4 TAUNET_862:2 TAUGATE_862:A 0.0492
*END

*D_NET net_508 1.1227
*CONN
*I TAUGATE_1198:Z O
*I inst_191:A I
*CAP
1 TAUGATE_1198:Z 0.0711
2 net_508:1 0.0021
3 net_508:2 0.2080
4 net_508:3 0.3529
5 inst_191:A 0.4886
*RES
2 TAUGATE_1198:Z net_508:1 0.3648
3 net_508:1 net_508:2 0.4404
4 net_508:2 net_508:3 0.3187
5 net_508:3 inst_191:A 0.4272
*END

*D_NET n536 1.4415
*CONN
*I TAUGATE_758:Z O
*P n536 O
*CAP
1 TAUGATE_758:Z 0.4026
2 n536:1 0.1803
3 n536:2 0.0882
4 n536:3 0.2924
5 n536 0.4780
*RES
2 TAUGATE_758:Z n536:1 0.3510
3 n536:1 n536:2 0.1182
4 n536:2 n536:3 0.2614
5 n536:3 n536 0.1530
*END

*D_NET TAUNET_362 1.0392
*CONN
*I inst_879:Z O
*I TAUGATE_362:A I
*CAP
1 inst_879:Z 0.4484
2 TAUNET_362:1 0.1986
3 TAUGATE_362:A 0.3922
*RES
2 inst_879:Z TAUNET_362:1 0.3950
3 TAUNET_362:1 TAUGATE_362:A 0.2666
*END

*D_NET n365 2.0823
*CONN
*I TAUGATE_528:Z O
*P n365 O
*CAP
1 TAUGATE_528:Z 0.4671
2 n365:1 0.3936
3 n365:2 0.4880
4 n365:3 0.4169
5 n365 0.3167
*RES
2 TAUGATE_528:Z n365:1 0.3376
3 n365:1 n365:2 0.1073
4 n365:2 n365:3 0.3579
5 n365:3 n365 0.1300
*END

*D_NET net_586 0.8732
*CONN
*I TAUGATE_85:Z O
*I inst_185:B I
*CAP
1 TAUGATE_85:Z 0.2362
2 net_586:1 0.1996
3 net_586:2 0.3123
4 inst_185:B 0.1251
*RES
2 TAUGATE_85:Z net_586:1 0.0048
3 net_586:1 net_586:2 0.3126
4 net_586:2 inst_185:B 0.0195
*END

*D_NET TAUNET_932 1.8169
*CONN
*I inst_743:ZN O
*I TAUGATE_932:A I
*CAP
1 inst_743:ZN 0.3700
2 TAUNET_932:1 0.3466
3 TAUNET_932:2 0.4948
4 TAUNET_932:3 0.4038
5 TAUNET_932:4 0.1954
6 TAUGATE_932:A 0.0063
*RES
2 inst_743:ZN TAUNET_932:1 0.4904
3 TAUNET_932:1 TAUNET_932:2 0.0915
4 TAUNET_932:2 TAUNET_932:3 0.4619
5 TAUNET_932:3 TAUNET_932:4 0.1065
6 TAUNET_932:4 TAUGATE_932:A 0.1990
*END

*D_NET net_703 0.5577
*CONN
*I TAUGATE_366:Z O
*I inst_547:A1 I
*CAP
1 TAUGATE_366:Z 0.0690
2 net_703:1 0.2934
3 net_703:2 0.0661
4 net_703:3 0.0281
5 inst_547:A1 0.1011
*RES
2 TAUGATE_366:Z net_703:1 0.2539
3 net_703:1 net_703:2 0.0765
4 net_703:2 net_703:3 0.1980
5 net_703:3 inst_547:A1 0.3226
*END

*D_NET net_193 2.4686
*CONN
*I TAUGATE_804:Z O
*I inst_1133:A1 I
*CAP
1 TAUGATE_804:Z 0.2766
2 net_193:1 0.4267
3 net_193:2 0.4596
4 net_193:3 0.3295
5 net_193:4 0.4724
6 net_193:5 0.4631
7 inst_1133:A1 0.0407
*RES
2 TAUGATE_804:Z net_193:1 0.4130
3 net_193:1 net_193:2 0.3462
4 net_193:2 net_193:3 0.0714
5 net_193:3 net_193:4 0.2110
6 net_193:4 net_193:5 0.2588
7 net_193:5 inst_1133:A1 0.0339
*END

*D_NET TAUNET_764 0.9948
*CONN
*I inst_358:ZN O
*I TAUGATE_764:A I
*CAP
1 inst_358:ZN 0.4874
2 TAUNET_764:1 0.2489
3 TAUGATE_764:A 0.2584
*RES
2 inst_358:ZN TAUNET_764:1 0.0346
3 TAUNET_764:1 TAUGATE_764:A 0.4333
*END

*D_NET TAUNET_526 1.2318
*CONN
*P n79 I
*I TAUGATE_526:A I
*CAP
1 n79 0.3416
2 TAUNET_526:1 0.1540
3 TAUNET_526:2 0.0325
4 TAUNET_526:3 0.0924
5 TAUNET_526:4 0.1850
6 TAUNET_526:5 0.1516
7 TAUGATE_526:A 0.2746
*RES
2 n79 TAUNET_526:1 0.4228
3 TAUNET_526:1 TAUNET_526:2 0.1417
4 TAUNET_526:2 TAUNET_526:3 0.3754
5 TAUNET_526:3 TAUNET_526:4 0.2016
6 TAUNET_526:4 TAUNET_526:5 0.0068
7 TAUNET_526:5 TAUGATE_526:A 0.2001
*END

*D_NET TAUNET_869 1.0932
*CONN
*I inst_1002:ZN O
*I TAUGATE_869:A I
*CAP
1 inst_1002:ZN 0.4926
2 TAUNET_869:1 0.3810
3 TAUGATE_869:A 0.2195
*RES
2 inst_1002:ZN TAUNET_869:1 0.2042
3 TAUNET_869:1 TAUGATE_869:A 0.2030
*END

*D_NET TAUNET_831 1.1297
*CONN
*I inst_429:ZN O
*I TAUGATE_831:A I
*CAP
1 inst_429:ZN 0.4413
2 TAUNET_831:1 0.4042
3 TAUNET_831:2 0.0451
4 TAUGATE_831:A 0.2391
*RES
2 inst_429:ZN TAUNET_831:1 0.0321
3 TAUNET_831:1 TAUNET_831:2 0.4146
4 TAUNET_831:2 TAUGATE_831:A 0.0857
*END

*D_NET TAUNET_992 1.3928
*CONN
*I inst_306:ZN O
*I TAUGATE_992:A I
*CAP
1 inst_306:ZN 0.2245
2 TAUNET_992:1 0.0551
3 TAUNET_992:2 0.1877
4 TAUNET_992:3 0.0973
5 TAUNET_992:4 0.4235
6 TAUNET_992:5 0.1903
7 TAUGATE_992:A 0.2143
*RES
2 inst_306:ZN TAUNET_992:1 0.0701
3 TAUNET_992:1 TAUNET_992:2 0.2421
4 TAUNET_992:2 TAUNET_992:3 0.4634
5 TAUNET_992:3 TAUNET_992:4 0.2497
6 TAUNET_992:4 TAUNET_992:5 0.2766
7 TAUNET_992:5 TAUGATE_992:A 0.3086
*END

*D_NET n1486 5.8936
*CONN
*I TAUGATE_1429:Z O
*I inst_945:A I
*I inst_425:A1 I
*I inst_114:B I
*I inst_1083:A I
*CAP
1 TAUGATE_1429:Z 0.4838
2 n1486:1 0.3539
3 inst_425:A1 0.3446
4 n1486:2 0.1374
5 n1486:3 0.1713
6 n1486:4 0.2153
7 n1486:5 0.3119
8 n1486:6 0.4918
9 inst_945:A 0.3583
10 n1486:7 0.4721
11 n1486:8 0.1185
12 n1486:9 0.4585
13 inst_114:B 0.3703
14 n1486:10 0.1640
15 n1486:11 0.1778
16 n1486:12 0.3155
17 n1486:13 0.4909
18 n1486:14 0.2285
19 inst_1083:A 0.2293
*RES
2 TAUGATE_1429:Z n1486:1 0.0192
3 n1486:1 inst_425:A1 0.1341
4 n1486:1 n1486:2 0.0251
5 n1486:2 n1486:3 0.0071
6 n1486:3 n1486:4 0.2242
7 n1486:4 n1486:5 0.4834
8 n1486:5 n1486:6 0.4589
9 n1486:6 inst_945:A 0.0098
10 n1486:4 n1486:7 0.0365
11 n1486:7 n1486:8 0.4409