*SPEF "IEEE 1481-1998"
*DESIGN "changes"
*DATE "Mon Jan 05 14:29:29 2015"
*VENDOR "TAU 2015 Contest"
*PROGRAM "Benchmark Parasitic Generator"
*VERSION "0.0"
*DESIGN_FLOW "NETLIST_TYPE_VERILOG"
*DIVIDER /
*DELIMITER :
*BUS_DELIMITER [ ]
*T_UNIT 1 PS
*C_UNIT 1 FF
*R_UNIT 1 KOHM
*L_UNIT 1 UH

*D_NET net_0 1.7439
*CONN
*I TAUGATE_12:Z O
*I inst_5:A1 I
*CAP
1 TAUGATE_12:Z 0.2611
2 net_0:1 0.4098
3 net_0:2 0.5009
4 net_0:3 0.2843
5 inst_5:A1 0.2878
*RES
2 TAUGATE_12:Z net_0:1 0.1659
3 net_0:1 net_0:2 0.2742
4 net_0:2 net_0:3 0.3494
5 net_0:3 inst_5:A1 0.1485
*END

*D_NET TAUNET_42 1.3760
*CONN
*I TAUGATE_44:Z O
*I TAUGATE_42:A I
*CAP
1 TAUGATE_44:Z 0.2110
2 TAUNET_42:1 0.3070
3 TAUNET_42:2 0.3583
4 TAUNET_42:3 0.1395
5 TAUNET_42:4 0.0646
6 TAUNET_42:5 0.0794
7 TAUGATE_42:A 0.2161
*RES
2 TAUGATE_44:Z TAUNET_42:1 0.1614
3 TAUNET_42:1 TAUNET_42:2 0.3312
4 TAUNET_42:2 TAUNET_42:3 0.3755
5 TAUNET_42:3 TAUNET_42:4 0.4644
6 TAUNET_42:4 TAUNET_42:5 0.4559
7 TAUNET_42:5 TAUGATE_42:A 0.4050
*END

*D_NET TAUNET_51 0.4849
*CONN
*I TAUGATE_49:Z O
*I TAUGATE_51:A I
*CAP
1 TAUGATE_49:Z 0.1670
2 TAUNET_51:1 0.2440
3 TAUNET_51:2 0.0332
4 TAUGATE_51:A 0.0406
*RES
2 TAUGATE_49:Z TAUNET_51:1 0.2732
3 TAUNET_51:1 TAUNET_51:2 0.0073
4 TAUNET_51:2 TAUGATE_51:A 0.1308
*END

*D_NET TAUNET_36 1.8161
*CONN
*I TAUGATE_30:Z O
*I TAUGATE_36:A I
*CAP
1 TAUGATE_30:Z 0.2909
2 TAUNET_36:1 0.0740
3 TAUNET_36:2 0.4871
4 TAUNET_36:3 0.4951
5 TAUNET_36:4 0.4125
6 TAUGATE_36:A 0.0565
*RES
2 TAUGATE_30:Z TAUNET_36:1 0.1285
3 TAUNET_36:1 TAUNET_36:2 0.0292
4 TAUNET_36:2 TAUNET_36:3 0.2926
5 TAUNET_36:3 TAUNET_36:4 0.4507
6 TAUNET_36:4 TAUGATE_36:A 0.3356
*END

*D_NET TAUNET_28 1.9602
*CONN
*I TAUGATE_2:Z O
*I TAUGATE_28:A I
*CAP
1 TAUGATE_2:Z 0.3845
2 TAUNET_28:1 0.3056
3 TAUNET_28:2 0.3464
4 TAUNET_28:3 0.0305
5 TAUNET_28:4 0.2383
6 TAUNET_28:5 0.4020
7 TAUGATE_28:A 0.2529
*RES
2 TAUGATE_2:Z TAUNET_28:1 0.2665
3 TAUNET_28:1 TAUNET_28:2 0.4354
4 TAUNET_28:2 TAUNET_28:3 0.1977
5 TAUNET_28:3 TAUNET_28:4 0.0788
6 TAUNET_28:4 TAUNET_28:5 0.3276
7 TAUNET_28:5 TAUGATE_28:A 0.3833
*END

