*SPEF "IEEE 1481-1998"
*DESIGN "changes"
*DATE "Mon Jan 05 14:30:30 2015"
*VENDOR "TAU 2015 Contest"
*PROGRAM "Benchmark Parasitic Generator"
*VERSION "0.0"
*DESIGN_FLOW "NETLIST_TYPE_VERILOG"
*DIVIDER /
*DELIMITER :
*BUS_DELIMITER [ ]
*T_UNIT 1 PS
*C_UNIT 1 FF
*R_UNIT 1 KOHM
*L_UNIT 1 UH

*D_NET TAUNET_13 1.7439
*CONN
*I inst_90:ZN O
*I TAUGATE_13:A I
*CAP
1 inst_90:ZN 0.2611
2 TAUNET_13:1 0.4098
3 TAUNET_13:2 0.5009
4 TAUNET_13:3 0.2843
5 TAUGATE_13:A 0.2878
*RES
2 inst_90:ZN TAUNET_13:1 0.1659
3 TAUNET_13:1 TAUNET_13:2 0.2742
4 TAUNET_13:2 TAUNET_13:3 0.3494
5 TAUNET_13:3 TAUGATE_13:A 0.1485
*END

*D_NET TAUNET_12 1.3760
*CONN
*I inst_76:ZN O
*I TAUGATE_12:A I
*CAP
1 inst_76:ZN 0.2110
2 TAUNET_12:1 0.3070
3 TAUNET_12:2 0.3583
4 TAUNET_12:3 0.1395
5 TAUNET_12:4 0.0646
6 TAUNET_12:5 0.0794
7 TAUGATE_12:A 0.2161
*RES
2 inst_76:ZN TAUNET_12:1 0.1614
3 TAUNET_12:1 TAUNET_12:2 0.3312
4 TAUNET_12:2 TAUNET_12:3 0.3755
5 TAUNET_12:3 TAUNET_12:4 0.4644
6 TAUNET_12:4 TAUNET_12:5 0.4559
7 TAUNET_12:5 TAUGATE_12:A 0.4050
*END

*D_NET net_30 0.4849
*CONN
*I TAUGATE_48:Z O
*I inst_31:A2 I
*CAP
1 TAUGATE_48:Z 0.1670
2 net_30:1 0.2440
3 net_30:2 0.0332
4 inst_31:A2 0.0406
*RES
2 TAUGATE_48:Z net_30:1 0.2732
3 net_30:1 net_30:2 0.0073
4 net_30:2 inst_31:A2 0.1308
*END

*D_NET net_61 1.8161
*CONN
*I TAUGATE_15:Z O
*I inst_10:A2 I
*CAP
1 TAUGATE_15:Z 0.2909
2 net_61:1 0.0740
3 net_61:2 0.4871
4 net_61:3 0.4951
5 net_61:4 0.4125
6 inst_10:A2 0.0565
*RES
2 TAUGATE_15:Z net_61:1 0.1285
3 net_61:1 net_61:2 0.0292
4 net_61:2 net_61:3 0.2926
5 net_61:3 net_61:4 0.4507
6 net_61:4 inst_10:A2 0.3356
*END

*D_NET net_54 1.9602
*CONN
*I TAUGATE_20:Z O
*I inst_15:A3 I
*CAP
1 TAUGATE_20:Z 0.3845
2 net_54:1 0.3056
3 net_54:2 0.3464
4 net_54:3 0.0305
5 net_54:4 0.2383
6 net_54:5 0.4020
7 inst_15:A3 0.2529
*RES
2 TAUGATE_20:Z net_54:1 0.2665
3 net_54:1 net_54:2 0.4354
4 net_54:2 net_54:3 0.1977
5 net_54:3 net_54:4 0.0788
6 net_54:4 net_54:5 0.3276
7 net_54:5 inst_15:A3 0.3833
*END

*D_NET net_91 2.0296
*CONN
*I TAUGATE_49:Z O
*I inst_71:A2 I
*I inst_130:D I
*CAP
1 TAUGATE_49:Z 0.0716
2 net_91:1 0.1922
3 net_91:2 0.2805
4 net_91:3 0.1322
5 inst_130:D 0.1905
6 net_91:4 0.2211
7 net_91:5 0.1955
8 net_91:6 0.1868
9 net_91:7 0.4889
10 inst_71:A2 0.0703
*RES
2 TAUGATE_49:Z net_91:1 0.4017
3 net_91:1 net_91:2 0.4680
4 net_91:2 net_91:3 0.2976
5 net_91:3 inst_130:D 0.2331
6 net_91:2 net_91:4 0.3298
7 net_91:4 net_91:5 0.4131
8 net_91:5 net_91:6 0.3310
9 net_91:6 net_91:7 0.2621
10 net_91:7 inst_71:A2 0.4792
*END

*D_NET net_24 1.1591
*CONN
*I TAUGATE_41:Z O
*I inst_16:A2 I
*CAP
1 TAUGATE_41:Z 0.0717
2 net_24:1 0.4035
3 net_24:2 0.0219
4 net_24:3 0.0830
5 net_24:4 0.4539
6 inst_16:A2 0.1250
*RES
2 TAUGATE_41:Z net_24:1 0.3196
3 net_24:1 net_24:2 0.4976
4 net_24:2 net_24:3 0.3591
5 net_24:3 net_24:4 0.2780
6 net_24:4 inst_16:A2 0.2022
*END

*D_NET TAUNET_35 2.5322
*CONN
*I inst_24:ZN O
*I TAUGATE_35:A I
*CAP
1 inst_24:ZN 0.4382
2 TAUNET_35:1 0.4055
3 TAUNET_35:2 0.4519
4 TAUNET_35:3 0.4658
5 TAUNET_35:4 0.3690
6 TAUGATE_35:A 0.4019
*RES
2 inst_24:ZN TAUNET_35:1 0.0632
3 TAUNET_35:1 TAUNET_35:2 0.2503
4 TAUNET_35:2 TAUNET_35:3 0.4700
5 TAUNET_35:3 TAUNET_35:4 0.3789
6 TAUNET_35:4 TAUGATE_35:A 0.3545
*END

*D_NET net_129 2.9151
*CONN
*I TAUGATE_18:Z O
*I inst_38:A2 I
*I inst_107:A I
*I inst_73:A1 I
*CAP
1 TAUGATE_18:Z 0.4316
2 net_129:1 0.4734
3 net_129:2 0.0376
4 inst_38:A2 0.0972
5 net_129:3 0.3840
6 net_129:4 0.2434
7 inst_107:A 0.3726
8 net_129:5 0.4443
9 net_129:6 0.1288
10 inst_73:A1 0.3022
*RES
2 TAUGATE_18:Z net_129:1 0.3594
3 net_129:1 net_129:2 0.0525
4 net_129:2 inst_38:A2 0.3248
5 net_129:2 net_129:3 0.2980
6 net_129:3 net_129:4 0.2454
7 net_129:4 inst_107:A 0.4670
8 net_129:2 net_129:5 0.1405
9 net_129:5 net_129:6 0.0668
10 net_129:6 inst_73:A1 0.3699
*END

*D_NET net_117 1.5989
*CONN
*I TAUGATE_28:Z O
*I inst_141:D I
*CAP
1 TAUGATE_28:Z 0.4004
2 net_117:1 0.1341
3 net_117:2 0.3915
4 net_117:3 0.0282
5 net_117:4 0.3089
6 net_117:5 0.0253
7 inst_141:D 0.3105
*RES
2 TAUGATE_28:Z net_117:1 0.1881
3 net_117:1 net_117:2 0.2034
4 net_117:2 net_117:3 0.1592
5 net_117:3 net_117:4 0.3147
6 net_117:4 net_117:5 0.2761
7 net_117:5 inst_141:D 0.3643
*END

*D_NET TAUNET_46 1.2795
*CONN
*I inst_145:ZN O
*I TAUGATE_46:A I
*CAP
1 inst_145:ZN 0.0666
2 TAUNET_46:1 0.3580
3 TAUNET_46:2 0.3774
4 TAUNET_46:3 0.2731
5 TAUNET_46:4 0.1525
6 TAUGATE_46:A 0.0518
*RES
2 inst_145:ZN TAUNET_46:1 0.2548
3 TAUNET_46:1 TAUNET_46:2 0.2154
4 TAUNET_46:2 TAUNET_46:3 0.4921
5 TAUNET_46:3 TAUNET_46:4 0.1648
6 TAUNET_46:4 TAUGATE_46:A 0.1855
*END

*D_NET net_72 1.0916
*CONN
*I TAUGATE_42:Z O
*I inst_134:D I
*CAP
1 TAUGATE_42:Z 0.3530
2 net_72:1 0.2239
3 net_72:2 0.0917
4 inst_134:D 0.4230
*RES
2 TAUGATE_42:Z net_72:1 0.1494
3 net_72:1 net_72:2 0.3290
4 net_72:2 inst_134:D 0.1620
*END

*D_NET TAUNET_24 1.1549
*CONN
*I inst_8:ZN O
*I TAUGATE_24:A I
*CAP
1 inst_8:ZN 0.2883
2 TAUNET_24:1 0.4381
3 TAUNET_24:2 0.3484
4 TAUGATE_24:A 0.0801
*RES
2 inst_8:ZN TAUNET_24:1 0.1392
3 TAUNET_24:1 TAUNET_24:2 0.1891
4 TAUNET_24:2 TAUGATE_24:A 0.0464
*END

*D_NET TAUNET_16 1.0649
*CONN
*I inst_48:ZN O
*I TAUGATE_16:A I
*CAP
1 inst_48:ZN 0.0279
2 TAUNET_16:1 0.0649
3 TAUNET_16:2 0.0510
4 TAUNET_16:3 0.1600
5 TAUNET_16:4 0.1748
6 TAUNET_16:5 0.4787
7 TAUGATE_16:A 0.1076
*RES
2 inst_48:ZN TAUNET_16:1 0.4606
3 TAUNET_16:1 TAUNET_16:2 0.3388
4 TAUNET_16:2 TAUNET_16:3 0.4657
5 TAUNET_16:3 TAUNET_16:4 0.3595
6 TAUNET_16:4 TAUNET_16:5 0.2471
7 TAUNET_16:5 TAUGATE_16:A 0.0832
*END

*D_NET net_135 0.8209
*CONN
*I TAUGATE_36:Z O
*I inst_36:A2 I
*CAP
1 TAUGATE_36:Z 0.3736
2 net_135:1 0.3644
3 inst_36:A2 0.0829
*RES
2 TAUGATE_36:Z net_135:1 0.1977
3 net_135:1 inst_36:A2 0.4694
*END

*D_NET TAUNET_31 2.0853
*CONN
*I inst_110:ZN O
*I TAUGATE_31:A I
*CAP
1 inst_110:ZN 0.3882
2 TAUNET_31:1 0.0413
3 TAUNET_31:2 0.4651
4 TAUNET_31:3 0.4065
5 TAUNET_31:4 0.3164
6 TAUNET_31:5 0.3513
7 TAUGATE_31:A 0.1165
*RES
2 inst_110:ZN TAUNET_31:1 0.0986
3 TAUNET_31:1 TAUNET_31:2 0.2243
4 TAUNET_31:2 TAUNET_31:3 0.1286
5 TAUNET_31:3 TAUNET_31:4 0.4269
6 TAUNET_31:4 TAUNET_31:5 0.2482
7 TAUNET_31:5 TAUGATE_31:A 0.2195
*END

*D_NET TAUNET_25 1.7569
*CONN
*I inst_126:QN O
*I TAUGATE_25:A I
*CAP
1 inst_126:QN 0.4091
2 TAUNET_25:1 0.3587
3 TAUNET_25:2 0.1869
4 TAUNET_25:3 0.4974
5 TAUGATE_25:A 0.3047
*RES
2 inst_126:QN TAUNET_25:1 0.1200
3 TAUNET_25:1 TAUNET_25:2 0.4969
4 TAUNET_25:2 TAUNET_25:3 0.1210
5 TAUNET_25:3 TAUGATE_25:A 0.1733
*END

*D_NET TAUNET_27 1.1896
*CONN
*I inst_115:ZN O
*I TAUGATE_27:A I
*CAP
1 inst_115:ZN 0.0283
2 TAUNET_27:1 0.2945
3 TAUNET_27:2 0.3177
4 TAUNET_27:3 0.2101
5 TAUGATE_27:A 0.3390
*RES
2 inst_115:ZN TAUNET_27:1 0.2046
3 TAUNET_27:1 TAUNET_27:2 0.3404
4 TAUNET_27:2 TAUNET_27:3 0.1317
5 TAUNET_27:3 TAUGATE_27:A 0.3617
*END

*D_NET TAUNET_28 1.2055
*CONN
*I inst_23:ZN O
*I TAUGATE_28:A I
*CAP
1 inst_23:ZN 0.3629
2 TAUNET_28:1 0.3900
3 TAUNET_28:2 0.0557
4 TAUNET_28:3 0.1253
5 TAUGATE_28:A 0.2716
*RES
2 inst_23:ZN TAUNET_28:1 0.3735
3 TAUNET_28:1 TAUNET_28:2 0.1079
4 TAUNET_28:2 TAUNET_28:3 0.3323
5 TAUNET_28:3 TAUGATE_28:A 0.2907
*END

*D_NET TAUNET_57 1.4383
*CONN
*I inst_62:ZN O
*I TAUGATE_57:A I
*CAP
1 inst_62:ZN 0.4966
2 TAUNET_57:1 0.2702
3 TAUNET_57:2 0.2135
4 TAUNET_57:3 0.0419
5 TAUNET_57:4 0.2773
6 TAUNET_57:5 0.0903
7 TAUGATE_57:A 0.0485
*RES
2 inst_62:ZN TAUNET_57:1 0.4602
3 TAUNET_57:1 TAUNET_57:2 0.4262
4 TAUNET_57:2 TAUNET_57:3 0.2009
5 TAUNET_57:3 TAUNET_57:4 0.3114
6 TAUNET_57:4 TAUNET_57:5 0.3090
7 TAUNET_57:5 TAUGATE_57:A 0.3972
*END

*D_NET net_5 2.3379
*CONN
*I TAUGATE_40:Z O
*I inst_80:A I
*I inst_26:A1 I
*CAP
1 TAUGATE_40:Z 0.2443
2 net_5:1 0.3734
3 net_5:2 0.1567
4 net_5:3 0.1247
5 inst_26:A1 0.2439
6 net_5:4 0.0169
7 net_5:5 0.4026
8 net_5:6 0.4684
9 net_5:7 0.2490
10 inst_80:A 0.0579
*RES
2 TAUGATE_40:Z net_5:1 0.2588
3 net_5:1 net_5:2 0.4474
4 net_5:2 net_5:3 0.3528
5 net_5:3 inst_26:A1 0.0472
6 net_5:1 net_5:4 0.0423
7 net_5:4 net_5:5 0.2861
8 net_5:5 net_5:6 0.4278
9 net_5:6 net_5:7 0.3875
10 net_5:7 inst_80:A 0.4796
*END

*D_NET net_52 1.0064
*CONN
*I TAUGATE_37:Z O
*I inst_7:A3 I
*CAP
1 TAUGATE_37:Z 0.1554
2 net_52:1 0.4380
3 inst_7:A3 0.4130
*RES
2 TAUGATE_37:Z net_52:1 0.4990
3 net_52:1 inst_7:A3 0.2134
*END

*D_NET TAUNET_9 2.0765
*CONN
*I TAUGATE_14:Z O
*I TAUGATE_9:A I
*CAP
1 TAUGATE_14:Z 0.4947
2 TAUNET_9:1 0.2854
3 TAUNET_9:2 0.4464
4 TAUNET_9:3 0.2438
5 TAUNET_9:4 0.2969
6 TAUGATE_9:A 0.3091
*RES
2 TAUGATE_14:Z TAUNET_9:1 0.5006
3 TAUNET_9:1 TAUNET_9:2 0.2264
4 TAUNET_9:2 TAUNET_9:3 0.3973
5 TAUNET_9:3 TAUNET_9:4 0.2044
6 TAUNET_9:4 TAUGATE_9:A 0.1531
*END

*D_NET net_127 3.1257
*CONN
*I TAUGATE_25:Z O
*I inst_25:A2 I
*I inst_109:A I
*I inst_43:A2 I
*CAP
1 TAUGATE_25:Z 0.2618
2 net_127:1 0.4002
3 net_127:2 0.3652
4 net_127:3 0.1857
5 inst_43:A2 0.0562
6 net_127:4 0.1026
7 net_127:5 0.1939
8 inst_109:A 0.1095
9 net_127:6 0.3663
10 net_127:7 0.2540
11 net_127:8 0.0526
12 net_127:9 0.2388
13 net_127:10 0.1787
14 inst_25:A2 0.3603
*RES
2 TAUGATE_25:Z net_127:1 0.0882
3 net_127:1 net_127:2 0.4386
4 net_127:2 net_127:3 0.2715
5 net_127:3 inst_43:A2 0.0199
6 net_127:1 net_127:4 0.0212
7 net_127:4 net_127:5 0.1417
8 net_127:5 inst_109:A 0.2190
9 net_127:1 net_127:6 0.0603
10 net_127:6 net_127:7 0.0863
11 net_127:7 net_127:8 0.3102
12 net_127:8 net_127:9 0.1239
13 net_127:9 net_127:10 0.2473
14 net_127:10 inst_25:A2 0.0055
*END

*D_NET TAUNET_37 1.2459
*CONN
*I inst_12:ZN O
*I TAUGATE_37:A I
*CAP
1 inst_12:ZN 0.2412
2 TAUNET_37:1 0.4441
3 TAUNET_37:2 0.4218
4 TAUNET_37:3 0.0848
5 TAUNET_37:4 0.0266
6 TAUGATE_37:A 0.0274
*RES
2 inst_12:ZN TAUNET_37:1 0.4218
3 TAUNET_37:1 TAUNET_37:2 0.2061
4 TAUNET_37:2 TAUNET_37:3 0.2110
5 TAUNET_37:3 TAUNET_37:4 0.4583
6 TAUNET_37:4 TAUGATE_37:A 0.3985
*END

*D_NET TAUNET_32 1.9898
*CONN
*I inst_132:QN O
*I TAUGATE_32:A I
*CAP
1 inst_132:QN 0.0725
2 TAUNET_32:1 0.3124
3 TAUNET_32:2 0.3685
4 TAUNET_32:3 0.4317
5 TAUNET_32:4 0.1801
6 TAUNET_32:5 0.2826
7 TAUGATE_32:A 0.3420
*RES
2 inst_132:QN TAUNET_32:1 0.0965
3 TAUNET_32:1 TAUNET_32:2 0.2555
4 TAUNET_32:2 TAUNET_32:3 0.1304
5 TAUNET_32:3 TAUNET_32:4 0.3675
6 TAUNET_32:4 TAUNET_32:5 0.4634
7 TAUNET_32:5 TAUGATE_32:A 0.2869
*END

*D_NET TAUNET_38 0.5511
*CONN
*P blif_reset_net I
*I TAUGATE_38:A I
*CAP
1 blif_reset_net 0.1182
2 TAUNET_38:1 0.0608
3 TAUGATE_38:A 0.3721
*RES
2 blif_reset_net TAUNET_38:1 0.4648
3 TAUNET_38:1 TAUGATE_38:A 0.2376
*END

*D_NET net_76 2.1170
*CONN
*I TAUGATE_57:Z O
*I inst_33:A2 I
*I inst_17:A3 I
*I inst_16:A3 I
*CAP
1 TAUGATE_57:Z 0.3081
2 net_76:1 0.0264
3 net_76:2 0.2502
4 inst_33:A2 0.2506
5 net_76:3 0.2747
6 inst_17:A3 0.1704
7 net_76:4 0.3621
8 net_76:5 0.1254
9 inst_16:A3 0.3490
*RES
2 TAUGATE_57:Z net_76:1 0.4486
3 net_76:1 net_76:2 0.0641
4 net_76:2 inst_33:A2 0.0138
5 net_76:1 net_76:3 0.2303
6 net_76:3 inst_17:A3 0.0121
7 net_76:1 net_76:4 0.4751
8 net_76:4 net_76:5 0.3195
9 net_76:5 inst_16:A3 0.4748
*END

*D_NET net_13 1.3487
*CONN
*I TAUGATE_47:Z O
*I inst_36:A1 I
*CAP
1 TAUGATE_47:Z 0.2036
2 net_13:1 0.0185
3 net_13:2 0.3777
4 net_13:3 0.2437
5 net_13:4 0.3641
6 inst_36:A1 0.1411
*RES
2 TAUGATE_47:Z net_13:1 0.2452
3 net_13:1 net_13:2 0.2723
4 net_13:2 net_13:3 0.2079
5 net_13:3 net_13:4 0.2449
6 net_13:4 inst_36:A1 0.0406
*END

*D_NET TAUNET_40 0.0517
*CONN
*I inst_130:QN O
*I TAUGATE_40:A I
*CAP
1 inst_130:QN 0.0078
2 TAUNET_40:1 0.0264
3 TAUGATE_40:A 0.0174
*RES
2 inst_130:QN TAUNET_40:1 0.1906
3 TAUNET_40:1 TAUGATE_40:A 0.1553
*END

*D_NET TAUNET_20 1.3954
*CONN
*I inst_2:ZN O
*I TAUGATE_20:A I
*CAP
1 inst_2:ZN 0.2944
2 TAUNET_20:1 0.0209
3 TAUNET_20:2 0.1182
4 TAUNET_20:3 0.1067
5 TAUNET_20:4 0.4881
6 TAUGATE_20:A 0.3672
*RES
2 inst_2:ZN TAUNET_20:1 0.4629
3 TAUNET_20:1 TAUNET_20:2 0.1157
4 TAUNET_20:2 TAUNET_20:3 0.1901
5 TAUNET_20:3 TAUNET_20:4 0.2138
6 TAUNET_20:4 TAUGATE_20:A 0.5008
*END

*D_NET net_100 4.2951
*CONN
*I TAUGATE_35:Z O
*I inst_6:A I
*I inst_47:A1 I
*I inst_121:A I
*I inst_41:A2 I
*CAP
1 TAUGATE_35:Z 0.3428
2 net_100:1 0.2733
3 net_100:2 0.1266
4 net_100:3 0.3814
5 inst_121:A 0.1363
6 net_100:4 0.1159
7 net_100:5 0.4527
8 net_100:6 0.1465
9 net_100:7 0.1463
10 net_100:8 0.4621
11 inst_47:A1 0.4065
12 net_100:9 0.0313
13 net_100:10 0.1217
14 net_100:11 0.0111
15 net_100:12 0.1222
16 inst_6:A 0.0613
17 net_100:13 0.3072
18 net_100:14 0.2768
19 net_100:15 0.1679
20 inst_41:A2 0.2053
*RES
2 TAUGATE_35:Z net_100:1 0.3277
3 net_100:1 net_100:2 0.3144
4 net_100:2 net_100:3 0.4503
5 net_100:3 inst_121:A 0.3676
6 net_100:1 net_100:4 0.0227
7 net_100:4 net_100:5 0.2236
8 net_100:5 net_100:6 0.4114
9 net_100:6 net_100:7 0.0715
10 net_100:7 net_100:8 0.1546
11 net_100:8 inst_47:A1 0.1861
12 net_100:8 net_100:9 0.1692
13 net_100:9 net_100:10 0.4407
14 net_100:10 net_100:11 0.4978
15 net_100:11 net_100:12 0.2563
16 net_100:12 inst_6:A 0.2595
17 net_100:7 net_100:13 0.2140
18 net_100:13 net_100:14 0.3306
19 net_100:14 net_100:15 0.1569
20 net_100:15 inst_41:A2 0.2580
*END

*D_NET net_11 4.3473
*CONN
*I TAUGATE_32:Z O
*I inst_112:A I
*I inst_57:A2 I
*I inst_35:A2 I
*CAP
1 TAUGATE_32:Z 0.4796
2 net_11:1 0.4946
3 net_11:2 0.4608
4 net_11:3 0.4692
5 net_11:4 0.4766
6 inst_57:A2 0.0589
7 net_11:5 0.1762
8 net_11:6 0.4748
9 inst_112:A 0.0806
10 net_11:7 0.2987
11 net_11:8 0.2640
12 net_11:9 0.1831
13 net_11:10 0.4110
14 inst_35:A2 0.0191
*RES
2 TAUGATE_32:Z net_11:1 0.0962
3 net_11:1 net_11:2 0.2415
4 net_11:2 net_11:3 0.1750
5 net_11:3 net_11:4 0.4103
6 net_11:4 inst_57:A2 0.0845
7 net_11:2 net_11:5 0.0407
8 net_11:5 net_11:6 0.2069
9 net_11:6 inst_112:A 0.0491
10 net_11:6 net_11:7 0.3538
11 net_11:7 net_11:8 0.4300
12 net_11:8 net_11:9 0.3629
13 net_11:9 net_11:10 0.0787
14 net_11:10 inst_35:A2 0.2007
*END

*D_NET TAUNET_14 2.1629
*CONN
*I inst_56:ZN O
*I TAUGATE_14:A I
*CAP
1 inst_56:ZN 0.4025
2 TAUNET_14:1 0.3538
3 TAUNET_14:2 0.4649
4 TAUNET_14:3 0.0482
5 TAUNET_14:4 0.1062
6 TAUNET_14:5 0.2963
7 TAUGATE_14:A 0.4911
*RES
2 inst_56:ZN TAUNET_14:1 0.2002
3 TAUNET_14:1 TAUNET_14:2 0.2573
4 TAUNET_14:2 TAUNET_14:3 0.3761
5 TAUNET_14:3 TAUNET_14:4 0.0616
6 TAUNET_14:4 TAUNET_14:5 0.4298
7 TAUNET_14:5 TAUGATE_14:A 0.2857
*END

*D_NET net_18 0.6543
*CONN
*I TAUGATE_50:Z O
*I inst_12:A1 I
*CAP
1 TAUGATE_50:Z 0.0470
2 net_18:1 0.1738
3 inst_12:A1 0.4336
*RES
2 TAUGATE_50:Z net_18:1 0.4556
3 net_18:1 inst_12:A1 0.1284
*END

*D_NET net_124 3.3615
*CONN
*I TAUGATE_29:Z O
*I inst_25:A1 I
*I inst_111:A I
*I inst_43:A3 I
*CAP
1 TAUGATE_29:Z 0.1731
2 net_124:1 0.3095
3 net_124:2 0.4895
4 net_124:3 0.4033
5 inst_25:A1 0.2734
6 net_124:4 0.4915
7 net_124:5 0.0683
8 inst_111:A 0.2135
9 net_124:6 0.4806
10 net_124:7 0.3473
11 inst_43:A3 0.1114
*RES
2 TAUGATE_29:Z net_124:1 0.3461
3 net_124:1 net_124:2 0.3729
4 net_124:2 net_124:3 0.0418
5 net_124:3 inst_25:A1 0.3671
6 net_124:3 net_124:4 0.4484
7 net_124:4 net_124:5 0.1379
8 net_124:5 inst_111:A 0.1139
9 net_124:1 net_124:6 0.0198
10 net_124:6 net_124:7 0.2366
11 net_124:7 inst_43:A3 0.1100
*END

*D_NET net_131 3.1784
*CONN
*I TAUGATE_45:Z O
*I inst_52:A1 I
*I inst_51:A1 I
*I inst_34:A2 I
*CAP
1 TAUGATE_45:Z 0.3290
2 net_131:1 0.4236
3 net_131:2 0.3328
4 inst_51:A1 0.1906
5 net_131:3 0.4963
6 inst_52:A1 0.2377
7 net_131:4 0.2352
8 net_131:5 0.3112
9 net_131:6 0.1345
10 net_131:7 0.4134
11 inst_34:A2 0.0741
*RES
2 TAUGATE_45:Z net_131:1 0.5003
3 net_131:1 net_131:2 0.4347
4 net_131:2 inst_51:A1 0.3044
5 net_131:1 net_131:3 0.2571
6 net_131:3 inst_52:A1 0.3610
7 net_131:3 net_131:4 0.4290
8 net_131:4 net_131:5 0.4891
9 net_131:5 net_131:6 0.0621
10 net_131:6 net_131:7 0.2122
11 net_131:7 inst_34:A2 0.2034
*END

*D_NET TAUNET_49 0.9541
*CONN
*I inst_70:ZN O
*I TAUGATE_49:A I
*CAP
1 inst_70:ZN 0.2112
2 TAUNET_49:1 0.1106
3 TAUNET_49:2 0.0283
4 TAUNET_49:3 0.2644
5 TAUGATE_49:A 0.3395
*RES
2 inst_70:ZN TAUNET_49:1 0.4160
3 TAUNET_49:1 TAUNET_49:2 0.1311
4 TAUNET_49:2 TAUNET_49:3 0.1702
5 TAUNET_49:3 TAUGATE_49:A 0.0535
*END

*D_NET net_141 1.0831
*CONN
*I TAUGATE_43:Z O
*I inst_76:A1 I
*CAP
1 TAUGATE_43:Z 0.2939
2 net_141:1 0.0520
3 net_141:2 0.1787
4 net_141:3 0.3277
5 inst_76:A1 0.2308
*RES
2 TAUGATE_43:Z net_141:1 0.1825
3 net_141:1 net_141:2 0.4154
4 net_141:2 net_141:3 0.4205
5 net_141:3 inst_76:A1 0.1921
*END

*D_NET TAUNET_50 1.3427
*CONN
*I inst_88:ZN O
*I TAUGATE_50:A I
*CAP
1 inst_88:ZN 0.0500
2 TAUNET_50:1 0.2552
3 TAUNET_50:2 0.2397
4 TAUNET_50:3 0.3943
5 TAUNET_50:4 0.0450
6 TAUGATE_50:A 0.3586
*RES
2 inst_88:ZN TAUNET_50:1 0.1804
3 TAUNET_50:1 TAUNET_50:2 0.2132
4 TAUNET_50:2 TAUNET_50:3 0.3448
5 TAUNET_50:3 TAUNET_50:4 0.2539
6 TAUNET_50:4 TAUGATE_50:A 0.0169
*END

*D_NET TAUNET_23 0.6350
*CONN
*I TAUGATE_6:Z O
*I TAUGATE_23:A I
*CAP
1 TAUGATE_6:Z 0.3418
2 TAUNET_23:1 0.2232
3 TAUGATE_23:A 0.0700
*RES
2 TAUGATE_6:Z TAUNET_23:1 0.3825
3 TAUNET_23:1 TAUGATE_23:A 0.4916
*END

*D_NET TAUNET_39 0.1950
*CONN
*I inst_10:ZN O
*I TAUGATE_39:A I
*CAP
1 inst_10:ZN 0.0722
2 TAUNET_39:1 0.0274
3 TAUGATE_39:A 0.0955
*RES
2 inst_10:ZN TAUNET_39:1 0.0758
3 TAUNET_39:1 TAUGATE_39:A 0.0730
*END

*D_NET net_36 2.6336
*CONN
*I TAUGATE_56:Z O
*I inst_56:A2 I
*I inst_60:A2 I
*I inst_96:A I
*CAP
1 TAUGATE_56:Z 0.1500
2 net_36:1 0.0605
3 net_36:2 0.1555
4 net_36:3 0.4347
5 inst_60:A2 0.2976
6 net_36:4 0.2983
7 net_36:5 0.4269
8 net_36:6 0.0493
9 net_36:7 0.0341
10 inst_56:A2 0.3020
11 net_36:8 0.3051
12 inst_96:A 0.1197
*RES
2 TAUGATE_56:Z net_36:1 0.3531
3 net_36:1 net_36:2 0.0316
4 net_36:2 net_36:3 0.1823
5 net_36:3 inst_60:A2 0.0755
6 net_36:3 net_36:4 0.3389
7 net_36:4 net_36:5 0.4000
8 net_36:5 net_36:6 0.0188
9 net_36:6 net_36:7 0.4709
10 net_36:7 inst_56:A2 0.4204
11 net_36:4 net_36:8 0.2956
12 net_36:8 inst_96:A 0.2210
*END

*D_NET TAUNET_51 1.0352
*CONN
*I inst_29:ZN O
*I TAUGATE_51:A I
*CAP
1 inst_29:ZN 0.2798
2 TAUNET_51:1 0.0137
3 TAUNET_51:2 0.2108
4 TAUNET_51:3 0.3101
5 TAUNET_51:4 0.0161
6 TAUGATE_51:A 0.2047
*RES
2 inst_29:ZN TAUNET_51:1 0.3729
3 TAUNET_51:1 TAUNET_51:2 0.0610
4 TAUNET_51:2 TAUNET_51:3 0.4010
5 TAUNET_51:3 TAUNET_51:4 0.2910
6 TAUNET_51:4 TAUGATE_51:A 0.3768
*END

*D_NET net_27 1.4722
*CONN
*I TAUGATE_51:Z O
*I inst_17:A2 I
*CAP
1 TAUGATE_51:Z 0.1250
2 net_27:1 0.3715
3 net_27:2 0.3144
4 net_27:3 0.3618
5 net_27:4 0.0820
6 inst_17:A2 0.2174
*RES
2 TAUGATE_51:Z net_27:1 0.3638
3 net_27:1 net_27:2 0.4097
4 net_27:2 net_27:3 0.2418
5 net_27:3 net_27:4 0.4080
6 net_27:4 inst_17:A2 0.3118
*END

*D_NET TAUNET_19 1.5302
*CONN
*I inst_83:ZN O
*I TAUGATE_19:A I
*CAP
1 inst_83:ZN 0.3134
2 TAUNET_19:1 0.1396
3 TAUNET_19:2 0.0910
4 TAUNET_19:3 0.1278
5 TAUNET_19:4 0.3093
6 TAUNET_19:5 0.3342
7 TAUGATE_19:A 0.2150
*RES
2 inst_83:ZN TAUNET_19:1 0.0109
3 TAUNET_19:1 TAUNET_19:2 0.1830
4 TAUNET_19:2 TAUNET_19:3 0.2298
5 TAUNET_19:3 TAUNET_19:4 0.0712
6 TAUNET_19:4 TAUNET_19:5 0.0044
7 TAUNET_19:5 TAUGATE_19:A 0.1986
*END

*D_NET TAUNET_34 0.3301
*CONN
*I inst_77:ZN O
*I TAUGATE_34:A I
*CAP
1 inst_77:ZN 0.0521
2 TAUNET_34:1 0.0043
3 TAUGATE_34:A 0.2737
*RES
2 inst_77:ZN TAUNET_34:1 0.4724
3 TAUNET_34:1 TAUGATE_34:A 0.2677
*END

*D_NET TAUNET_54 1.0280
*CONN
*I inst_13:ZN O
*I TAUGATE_54:A I
*CAP
1 inst_13:ZN 0.1466
2 TAUNET_54:1 0.2008
3 TAUNET_54:2 0.3776
4 TAUNET_54:3 0.2937
5 TAUGATE_54:A 0.0093
*RES
2 inst_13:ZN TAUNET_54:1 0.2822
3 TAUNET_54:1 TAUNET_54:2 0.4311
4 TAUNET_54:2 TAUNET_54:3 0.0309
5 TAUNET_54:3 TAUGATE_54:A 0.1138
*END

*D_NET TAUNET_44 1.6740
*CONN
*I inst_43:ZN O
*I TAUGATE_44:A I
*CAP
1 inst_43:ZN 0.3567
2 TAUNET_44:1 0.2336
3 TAUNET_44:2 0.3863
4 TAUNET_44:3 0.2365
5 TAUNET_44:4 0.1037
6 TAUGATE_44:A 0.3572
*RES
2 inst_43:ZN TAUNET_44:1 0.2211
3 TAUNET_44:1 TAUNET_44:2 0.2185
4 TAUNET_44:2 TAUNET_44:3 0.2266
5 TAUNET_44:3 TAUNET_44:4 0.2538
6 TAUNET_44:4 TAUGATE_44:A 0.1297
*END

*D_NET net_71 1.5261
*CONN
*I TAUGATE_10:Z O
*I inst_18:A2 I
*CAP
1 TAUGATE_10:Z 0.2417
2 net_71:1 0.4262
3 net_71:2 0.3737
4 net_71:3 0.3015
5 inst_18:A2 0.1830
*RES
2 TAUGATE_10:Z net_71:1 0.3035
3 net_71:1 net_71:2 0.4053
4 net_71:2 net_71:3 0.0863
5 net_71:3 inst_18:A2 0.2362
*END

*D_NET net_0 1.0858
*CONN
*I TAUGATE_26:Z O
*I inst_83:A I
*CAP
1 TAUGATE_26:Z 0.0277
2 net_0:1 0.2912
3 net_0:2 0.1111
4 net_0:3 0.3711
5 net_0:4 0.0512
6 net_0:5 0.1351
7 inst_83:A 0.0984
*RES
2 TAUGATE_26:Z net_0:1 0.0368
3 net_0:1 net_0:2 0.4376
4 net_0:2 net_0:3 0.1423
5 net_0:3 net_0:4 0.1283
6 net_0:4 net_0:5 0.1146
7 net_0:5 inst_83:A 0.3234
*END

*D_NET net_3 1.6441
*CONN
*I TAUGATE_17:Z O
*I inst_79:A I
*CAP
1 TAUGATE_17:Z 0.4832
2 net_3:1 0.3781
3 net_3:2 0.3766
4 net_3:3 0.0185
5 inst_79:A 0.3877
*RES
2 TAUGATE_17:Z net_3:1 0.1588
3 net_3:1 net_3:2 0.3738
4 net_3:2 net_3:3 0.4556
5 net_3:3 inst_79:A 0.1835
*END

*D_NET TAUNET_43 1.1460
*CONN
*I inst_4:ZN O
*I TAUGATE_43:A I
*CAP
1 inst_4:ZN 0.2614
2 TAUNET_43:1 0.2164
3 TAUNET_43:2 0.4372
4 TAUNET_43:3 0.1158
5 TAUGATE_43:A 0.1153
*RES
2 inst_4:ZN TAUNET_43:1 0.3810
3 TAUNET_43:1 TAUNET_43:2 0.1100
4 TAUNET_43:2 TAUNET_43:3 0.1662
5 TAUNET_43:3 TAUGATE_43:A 0.3178
*END

*D_NET net_16 2.4376
*CONN
*I TAUGATE_19:Z O
*I inst_86:A I
*I inst_59:A1 I
*CAP
1 TAUGATE_19:Z 0.2497
2 net_16:1 0.2343
3 net_16:2 0.0981
4 net_16:3 0.3461
5 net_16:4 0.2382
6 net_16:5 0.4109
7 inst_59:A1 0.0945
8 net_16:6 0.4527
9 inst_86:A 0.3131
*RES
2 TAUGATE_19:Z net_16:1 0.2326
3 net_16:1 net_16:2 0.0121
4 net_16:2 net_16:3 0.2674
5 net_16:3 net_16:4 0.2072
6 net_16:4 net_16:5 0.0414
7 net_16:5 inst_59:A1 0.2455
8 net_16:2 net_16:6 0.4392
9 net_16:6 inst_86:A 0.4048
*END

*D_NET TAUNET_56 1.7566
*CONN
*I inst_91:ZN O
*I TAUGATE_56:A I
*CAP
1 inst_91:ZN 0.3283
2 TAUNET_56:1 0.4199
3 TAUNET_56:2 0.3736
4 TAUNET_56:3 0.3306
5 TAUGATE_56:A 0.3042
*RES
2 inst_91:ZN TAUNET_56:1 0.1317
3 TAUNET_56:1 TAUNET_56:2 0.1481
4 TAUNET_56:2 TAUNET_56:3 0.2485
5 TAUNET_56:3 TAUGATE_56:A 0.2201
*END

*D_NET TAUNET_55 0.7087
*CONN
*I inst_49:ZN O
*I TAUGATE_55:A I
*CAP
1 inst_49:ZN 0.3013
2 TAUNET_55:1 0.0262
3 TAUGATE_55:A 0.3812
*RES
2 inst_49:ZN TAUNET_55:1 0.0656
3 TAUNET_55:1 TAUGATE_55:A 0.1550
*END

*D_NET TAUNET_11 1.3180
*CONN
*I inst_95:ZN O
*I TAUGATE_11:A I
*CAP
1 inst_95:ZN 0.1418
2 TAUNET_11:1 0.3805
3 TAUNET_11:2 0.2523
4 TAUNET_11:3 0.0497
5 TAUGATE_11:A 0.4938
*RES
2 inst_95:ZN TAUNET_11:1 0.3913
3 TAUNET_11:1 TAUNET_11:2 0.2131
4 TAUNET_11:2 TAUNET_11:3 0.3201
5 TAUNET_11:3 TAUGATE_11:A 0.0320
*END

*D_NET TAUNET_33 2.1105
*CONN
*I inst_133:QN O
*I TAUGATE_33:A I
*CAP
1 inst_133:QN 0.3378
2 TAUNET_33:1 0.2454
3 TAUNET_33:2 0.4527
4 TAUNET_33:3 0.2663
5 TAUNET_33:4 0.3641
6 TAUNET_33:5 0.1740
7 TAUGATE_33:A 0.2701
*RES
2 inst_133:QN TAUNET_33:1 0.3351
3 TAUNET_33:1 TAUNET_33:2 0.4105
4 TAUNET_33:2 TAUNET_33:3 0.3004
5 TAUNET_33:3 TAUNET_33:4 0.3665
6 TAUNET_33:4 TAUNET_33:5 0.1341
7 TAUNET_33:5 TAUGATE_33:A 0.0859
*END

*D_NET TAUNET_22 0.5333
*CONN
*I inst_15:ZN O
*I TAUGATE_22:A I
*CAP
1 inst_15:ZN 0.3812
2 TAUNET_22:1 0.1227
3 TAUGATE_22:A 0.0294
*RES
2 inst_15:ZN TAUNET_22:1 0.0059
3 TAUNET_22:1 TAUGATE_22:A 0.3552
*END

*D_NET TAUNET_41 2.1906
*CONN
*I inst_28:ZN O
*I TAUGATE_41:A I
*CAP
1 inst_28:ZN 0.1840
2 TAUNET_41:1 0.3573
3 TAUNET_41:2 0.4559
4 TAUNET_41:3 0.3575
5 TAUNET_41:4 0.1715
6 TAUNET_41:5 0.3050
7 TAUGATE_41:A 0.3594
*RES
2 inst_28:ZN TAUNET_41:1 0.4902
3 TAUNET_41:1 TAUNET_41:2 0.4716
4 TAUNET_41:2 TAUNET_41:3 0.2112
5 TAUNET_41:3 TAUNET_41:4 0.1762
6 TAUNET_41:4 TAUNET_41:5 0.1166
7 TAUNET_41:5 TAUGATE_41:A 0.1660
*END

*D_NET TAUNET_30 1.7572
*CONN
*I inst_79:ZN O
*I TAUGATE_30:A I
*CAP
1 inst_79:ZN 0.2908
2 TAUNET_30:1 0.3308
3 TAUNET_30:2 0.4080
4 TAUNET_30:3 0.4669
5 TAUNET_30:4 0.1932
6 TAUGATE_30:A 0.0675
*RES
2 inst_79:ZN TAUNET_30:1 0.0053
3 TAUNET_30:1 TAUNET_30:2 0.1459
4 TAUNET_30:2 TAUNET_30:3 0.0437
5 TAUNET_30:3 TAUNET_30:4 0.4598
6 TAUNET_30:4 TAUGATE_30:A 0.3838
*END

*D_NET net_139 2.5348
*CONN
*I TAUGATE_31:Z O
*I inst_48:A2 I
*CAP
1 TAUGATE_31:Z 0.3263
2 net_139:1 0.4683
3 net_139:2 0.1543
4 net_139:3 0.4873
5 net_139:4 0.1669
6 net_139:5 0.4800
7 inst_48:A2 0.4518
*RES
2 TAUGATE_31:Z net_139:1 0.0570
3 net_139:1 net_139:2 0.4909
4 net_139:2 net_139:3 0.0572
5 net_139:3 net_139:4 0.5008
6 net_139:4 net_139:5 0.1013
7 net_139:5 inst_48:A2 0.2457
*END

*D_NET TAUNET_58 2.1229
*CONN
*I inst_67:ZN O
*I TAUGATE_58:A I
*CAP
1 inst_67:ZN 0.2594
2 TAUNET_58:1 0.4074
3 TAUNET_58:2 0.4309
4 TAUNET_58:3 0.4474
5 TAUNET_58:4 0.2931
6 TAUGATE_58:A 0.2848
*RES
2 inst_67:ZN TAUNET_58:1 0.2246
3 TAUNET_58:1 TAUNET_58:2 0.3320
4 TAUNET_58:2 TAUNET_58:3 0.3870
5 TAUNET_58:3 TAUNET_58:4 0.3663
6 TAUNET_58:4 TAUGATE_58:A 0.1512
*END

*D_NET net_10 5.5643
*CONN
*I TAUGATE_53:Z O
*I inst_114:A I
*I inst_115:A I
*I inst_57:A1 I
*CAP
1 TAUGATE_53:Z 0.4493
2 net_10:1 0.2866
3 net_10:2 0.1873
4 net_10:3 0.1599
5 net_10:4 0.3589
6 net_10:5 0.4697
7 inst_114:A 0.4844
8 net_10:6 0.1285
9 net_10:7 0.0491
10 net_10:8 0.3511
11 net_10:9 0.2111
12 net_10:10 0.3010
13 inst_115:A 0.1515
14 net_10:11 0.3648
15 net_10:12 0.4404
16 net_10:13 0.3187
17 net_10:14 0.4272
18 net_10:15 0.0224
19 inst_57:A1 0.4026
*RES
2 TAUGATE_53:Z net_10:1 0.0401
3 net_10:1 net_10:2 0.2861
4 net_10:2 net_10:3 0.1883
5 net_10:3 net_10:4 0.3075
6 net_10:4 net_10:5 0.0604
7 net_10:5 inst_114:A 0.3908
8 net_10:4 net_10:6 0.0492
9 net_10:6 net_10:7 0.2707
10 net_10:7 net_10:8 0.0711
11 net_10:8 net_10:9 0.2365
12 net_10:9 net_10:10 0.0021
13 net_10:10 inst_115:A 0.2080
14 net_10:8 net_10:11 0.2784
15 net_10:11 net_10:12 0.1803
16 net_10:12 net_10:13 0.0882
17 net_10:13 net_10:14 0.2924
18 net_10:14 net_10:15 0.4780
19 net_10:15 inst_57:A1 0.3510
*END

*D_NET net_59 1.0443
*CONN
*I TAUGATE_54:Z O
*I inst_10:A4 I
*CAP
1 TAUGATE_54:Z 0.2614
2 net_59:1 0.2582
3 net_59:2 0.4484
4 inst_10:A4 0.0762
*RES
2 TAUGATE_54:Z net_59:1 0.1986
3 net_59:1 net_59:2 0.3922
4 net_59:2 inst_10:A4 0.3950
*END

*D_NET net_120 2.6754
*CONN
*I TAUGATE_44:Z O
*I inst_49:A1 I
*CAP
1 TAUGATE_44:Z 0.4255
2 net_120:1 0.2972
3 net_120:2 0.3936
4 net_120:3 0.4880
5 net_120:4 0.4169
6 net_120:5 0.3167
7 inst_49:A1 0.3376
*RES
2 TAUGATE_44:Z net_120:1 0.1073
3 net_120:1 net_120:2 0.3579
4 net_120:2 net_120:3 0.1300
5 net_120:3 net_120:4 0.3795
6 net_120:4 net_120:5 0.2362
7 net_120:5 inst_49:A1 0.1908
*END

*D_NET TAUNET_52 0.6491
*CONN
*I inst_84:ZN O
*I TAUGATE_52:A I
*CAP
1 inst_84:ZN 0.3123
2 TAUNET_52:1 0.0048
3 TAUNET_52:2 0.3126
4 TAUGATE_52:A 0.0195
*RES
2 inst_84:ZN TAUNET_52:1 0.0541
3 TAUNET_52:1 TAUNET_52:2 0.3700
4 TAUNET_52:2 TAUGATE_52:A 0.3260
*END

*D_NET net_51 5.4765
*CONN
*I TAUGATE_34:Z O
*I inst_1:A I
*I inst_44:A1 I
*I inst_42:A2 I
*I inst_11:A1 I
*I inst_60:A1 I
*I inst_63:A1 I
*CAP
1 TAUGATE_34:Z 0.4948
2 net_51:1 0.1954
3 net_51:2 0.0063
4 net_51:3 0.4904
5 net_51:4 0.0915
6 net_51:5 0.4619
7 inst_60:A1 0.1065
8 net_51:6 0.0765
9 net_51:7 0.1980
10 net_51:8 0.3226
11 inst_44:A1 0.1282
12 net_51:9 0.4631
13 net_51:10 0.0407
14 net_51:11 0.4130
15 net_51:12 0.3462
16 net_51:13 0.0714
17 inst_42:A2 0.2110
18 net_51:14 0.4333
19 inst_11:A1 0.0645
20 net_51:15 0.0924
21 inst_1:A 0.1850
22 net_51:16 0.3754
23 net_51:17 0.2016
24 inst_63:A1 0.0068
*RES
2 TAUGATE_34:Z net_51:1 0.1990
3 net_51:1 net_51:2 0.2576
4 net_51:2 net_51:3 0.0690
5 net_51:3 net_51:4 0.2231
6 net_51:4 net_51:5 0.2934
7 net_51:5 inst_60:A1 0.0661
8 net_51:1 net_51:6 0.2766
9 net_51:6 net_51:7 0.4045
10 net_51:7 net_51:8 0.4267
11 net_51:8 inst_44:A1 0.4596
12 net_51:6 net_51:9 0.2588
13 net_51:9 net_51:10 0.0339
14 net_51:10 net_51:11 0.0519
15 net_51:11 net_51:12 0.4874
16 net_51:12 net_51:13 0.0374
17 net_51:13 inst_42:A2 0.2489
18 net_51:7 net_51:14 0.3416
19 net_51:14 inst_11:A1 0.4099
20 net_51:5 net_51:15 0.1516
21 net_51:15 inst_1:A 0.2746
22 net_51:14 net_51:16 0.2001
23 net_51:16 net_51:17 0.4220
24 net_51:17 inst_63:A1 0.4926
*END

*D_NET TAUNET_59 1.4952
*CONN
*I TAUGATE_3:Z O
*I TAUGATE_59:A I
*CAP
1 TAUGATE_3:Z 0.3810
2 TAUNET_59:1 0.2042
3 TAUNET_59:2 0.2030
4 TAUNET_59:3 0.2656
5 TAUGATE_59:A 0.4413
*RES
2 TAUGATE_3:Z TAUNET_59:1 0.1336
3 TAUNET_59:1 TAUNET_59:2 0.4042
4 TAUNET_59:2 TAUNET_59:3 0.0451
5 TAUNET_59:3 TAUGATE_59:A 0.2391
*END

*D_NET TAUNET_7 0.9045
*CONN
*I TAUGATE_21:Z O
*I TAUGATE_7:A I
*CAP
1 TAUGATE_21:Z 0.4146
2 TAUNET_7:1 0.2654
3 TAUGATE_7:A 0.2245
*RES
2 TAUGATE_21:Z TAUNET_7:1 0.4797
3 TAUNET_7:1 TAUGATE_7:A 0.0551
*END

*D_NET blif_reset_net 1.5272
*CONN
*I TAUGATE_38:Z O
*I inst_123:A I
*CAP
1 TAUGATE_38:Z 0.0973
2 blif_reset_net:1 0.1903
3 blif_reset_net:2 0.2143
4 blif_reset_net:3 0.0701
5 blif_reset_net:4 0.2421
6 blif_reset_net:5 0.4634
7 inst_123:A 0.2497
*RES
2 TAUGATE_38:Z blif_reset_net:1 0.2766
3 blif_reset_net:1 blif_reset_net:2 0.3086
4 blif_reset_net:2 blif_reset_net:3 0.2353
5 blif_reset_net:3 blif_reset_net:4 0.4838
6 blif_reset_net:4 blif_reset_net:5 0.0722
7 blif_reset_net:5 inst_123:A 0.3539
*END

*D_NET TAUNET_48 1.2346
*CONN
*I inst_1:ZN O
*I TAUGATE_48:A I
*CAP
1 inst_1:ZN 0.0192
2 TAUNET_48:1 0.4054
3 TAUNET_48:2 0.3681
4 TAUGATE_48:A 0.4419
*RES
2 inst_1:ZN TAUNET_48:1 0.1561
3 TAUNET_48:1 TAUNET_48:2 0.1347
4 TAUNET_48:2 TAUGATE_48:A 0.0224
*END

*D_NET net_50 1.9103
*CONN
*I TAUGATE_24:Z O
*I inst_46:A1 I
*CAP
1 TAUGATE_24:Z 0.2244
2 net_50:1 0.1374
3 net_50:2 0.1713
4 net_50:3 0.2153
5 net_50:4 0.3119
6 net_50:5 0.4918
7 inst_46:A1 0.3583
*RES
2 TAUGATE_24:Z net_50:1 0.0251
3 net_50:1 net_50:2 0.0071
4 net_50:2 net_50:3 0.2242
5 net_50:3 net_50:4 0.4834
6 net_50:4 net_50:5 0.4589
7 net_50:5 inst_46:A1 0.0098
*END

*D_NET TAUNET_42 2.1429
*CONN
*I inst_14:ZN O
*I TAUGATE_42:A I
*CAP
1 inst_14:ZN 0.2846
2 TAUNET_42:1 0.1185
3 TAUNET_42:2 0.4585
4 TAUNET_42:3 0.3703
5 TAUNET_42:4 0.0365
6 TAUNET_42:5 0.4409
7 TAUGATE_42:A 0.4335
*RES
2 inst_14:ZN TAUNET_42:1 0.3158
3 TAUNET_42:1 TAUNET_42:2 0.2513
4 TAUNET_42:2 TAUNET_42:3 0.4798
5 TAUNET_42:3 TAUNET_42:4 0.1640
6 TAUNET_42:4 TAUNET_42:5 0.1778
7 TAUNET_42:5 TAUGATE_42:A 0.3155
*END

*D_NET YLW1 1.3545
*CONN
*I TAUGATE_23:Z O
*P YLW1 O
*CAP
1 TAUGATE_23:Z 0.2285
2 YLW1:1 0.4514
3 YLW1:2 0.1489
4 YLW1:3 0.3442
5 YLW1 0.1815
*RES
2 TAUGATE_23:Z YLW1:1 0.2112
3 YLW1:1 YLW1:2 0.3238
4 YLW1:2 YLW1:3 0.1536
5 YLW1:3 YLW1 0.2744
*END

*D_NET net_66 5.5116
*CONN
*I TAUGATE_52:Z O
*I inst_47:A3 I
*I inst_8:A2 I
*I inst_42:A1 I
*I inst_99:A I
*I inst_4:B I