*SPEF "IEEE 1481-1998"
*DESIGN "changes"
*DATE "Mon Jan 05 14:30:31 2015"
*VENDOR "TAU 2015 Contest"
*PROGRAM "Benchmark Parasitic Generator"
*VERSION "0.0"
*DESIGN_FLOW "NETLIST_TYPE_VERILOG"
*DIVIDER /
*DELIMITER :
*BUS_DELIMITER [ ]
*T_UNIT 1 PS
*C_UNIT 1 FF
*R_UNIT 1 KOHM
*L_UNIT 1 UH

*D_NET net_47 1.7439
*CONN
*I TAUGATE_64:Z O
*I inst_145:A2 I
*CAP
1 TAUGATE_64:Z 0.2611
2 net_47:1 0.4098
3 net_47:2 0.5009
4 net_47:3 0.2843
5 inst_145:A2 0.2878
*RES
2 TAUGATE_64:Z net_47:1 0.1659
3 net_47:1 net_47:2 0.2742
4 net_47:2 net_47:3 0.3494
5 net_47:3 inst_145:A2 0.1485
*END

*D_NET TAUNET_114 1.3760
*CONN
*I TAUGATE_15:Z O
*I TAUGATE_114:A I
*CAP
1 TAUGATE_15:Z 0.2110
2 TAUNET_114:1 0.3070
3 TAUNET_114:2 0.3583
4 TAUNET_114:3 0.1395
5 TAUNET_114:4 0.0646
6 TAUNET_114:5 0.0794
7 TAUGATE_114:A 0.2161
*RES
2 TAUGATE_15:Z TAUNET_114:1 0.1614
3 TAUNET_114:1 TAUNET_114:2 0.3312
4 TAUNET_114:2 TAUNET_114:3 0.3755
5 TAUNET_114:3 TAUNET_114:4 0.4644
6 TAUNET_114:4 TAUNET_114:5 0.4559
7 TAUNET_114:5 TAUGATE_114:A 0.4050
*END

*D_NET net_137 0.4849
*CONN
*I TAUGATE_149:Z O
*I inst_53:A2 I
*CAP
1 TAUGATE_149:Z 0.1670
2 net_137:1 0.2440
3 net_137:2 0.0332
4 inst_53:A2 0.0406
*RES
2 TAUGATE_149:Z net_137:1 0.2732
3 net_137:1 net_137:2 0.0073
4 net_137:2 inst_53:A2 0.1308
*END

*D_NET net_54 1.8161
*CONN
*I TAUGATE_118:Z O
*I inst_15:A3 I
*CAP
1 TAUGATE_118:Z 0.2909
2 net_54:1 0.0740
3 net_54:2 0.4871
4 net_54:3 0.4951
5 net_54:4 0.4125
6 inst_15:A3 0.0565
*RES
2 TAUGATE_118:Z net_54:1 0.1285
3 net_54:1 net_54:2 0.0292
4 net_54:2 net_54:3 0.2926
5 net_54:3 net_54:4 0.4507
6 net_54:4 inst_15:A3 0.3356
*END

*D_NET net_132 1.9602
*CONN
*I TAUGATE_110:Z O
*I inst_15:A1 I
*CAP
1 TAUGATE_110:Z 0.3845
2 net_132:1 0.3056
3 net_132:2 0.3464
4 net_132:3 0.0305
5 net_132:4 0.2383
6 net_132:5 0.4020
7 inst_15:A1 0.2529
*RES
2 TAUGATE_110:Z net_132:1 0.2665
3 net_132:1 net_132:2 0.4354
4 net_132:2 net_132:3 0.1977
5 net_132:3 net_132:4 0.0788
6 net_132:4 net_132:5 0.3276
7 net_132:5 inst_15:A1 0.3833
*END

*D_NET net_105 0.8670
*CONN
*I TAUGATE_260:Z O
*I inst_132:D I
*CAP
1 TAUGATE_260:Z 0.0716
2 net_105:1 0.1922
3 net_105:2 0.2805
4 net_105:3 0.1322
5 inst_132:D 0.1905
*RES
2 TAUGATE_260:Z net_105:1 0.4017
3 net_105:1 net_105:2 0.4680
4 net_105:2 net_105:3 0.2976
5 net_105:3 inst_132:D 0.2331
*END

*D_NET TAUNET_232 1.3358
*CONN
*I inst_70:ZN O
*I TAUGATE_232:A I
*CAP
1 inst_70:ZN 0.3943
2 TAUNET_232:1 0.1955
3 TAUNET_232:2 0.1868
4 TAUNET_232:3 0.4889
5 TAUGATE_232:A 0.0703
*RES
2 inst_70:ZN TAUNET_232:1 0.3298
3 TAUNET_232:1 TAUNET_232:2 0.4131
4 TAUNET_232:2 TAUNET_232:3 0.3310
5 TAUNET_232:3 TAUGATE_232:A 0.2621
*END

*D_NET TAUNET_77 0.9833
*CONN
*I TAUGATE_37:Z O
*I TAUGATE_77:A I
*CAP
1 TAUGATE_37:Z 0.1808
2 TAUNET_77:1 0.3990
3 TAUGATE_77:A 0.4035
*RES
2 TAUGATE_37:Z TAUNET_77:1 0.0219
3 TAUNET_77:1 TAUGATE_77:A 0.0830
*END

*D_NET net_129 4.6280
*CONN
*I TAUGATE_68:Z O
*I inst_38:A2 I
*I inst_107:A I
*I inst_73:A1 I
*CAP
1 TAUGATE_68:Z 0.1250
2 net_129:1 0.4976
3 net_129:2 0.3591
4 net_129:3 0.2780
5 net_129:4 0.2022
6 inst_73:A1 0.1593
7 net_129:5 0.0632
8 net_129:6 0.2503
9 net_129:7 0.4700
10 net_129:8 0.3789
11 net_129:9 0.3545
12 inst_107:A 0.1033
13 net_129:10 0.2597
14 net_129:11 0.1267
15 net_129:12 0.3840
16 net_129:13 0.2434
17 inst_38:A2 0.3726
*RES
2 TAUGATE_68:Z net_129:1 0.4382
3 net_129:1 net_129:2 0.3498
4 net_129:2 net_129:3 0.4055
5 net_129:3 net_129:4 0.4519
6 net_129:4 inst_73:A1 0.4658
7 net_129:4 net_129:5 0.4316
8 net_129:5 net_129:6 0.1782
9 net_129:6 net_129:7 0.4734
10 net_129:7 net_129:8 0.0376
11 net_129:8 net_129:9 0.0972
12 net_129:9 inst_107:A 0.3594
13 net_129:1 net_129:10 0.2980
14 net_129:10 net_129:11 0.2454
15 net_129:11 net_129:12 0.4670
16 net_129:12 net_129:13 0.1921
17 net_129:13 inst_38:A2 0.1376
*END

*D_NET net_119 1.5195
*CONN
*I TAUGATE_220:Z O
*I inst_54:A1 I
*CAP
1 TAUGATE_220:Z 0.1288
2 net_119:1 0.1405
3 net_119:2 0.0668
4 net_119:3 0.3699
5 net_119:4 0.4131
6 inst_54:A1 0.4004
*RES
2 TAUGATE_220:Z net_119:1 0.4814
3 net_119:1 net_119:2 0.1341
4 net_119:2 net_119:3 0.3915
5 net_119:3 net_119:4 0.0282
6 net_119:4 inst_54:A1 0.3089
*END

*D_NET net_98 0.9878
*CONN
*I TAUGATE_102:Z O
*I inst_4:A I
*CAP
1 TAUGATE_102:Z 0.3105
2 net_98:1 0.2034
3 net_98:2 0.1592
4 inst_4:A 0.3147
*RES
2 TAUGATE_102:Z net_98:1 0.2761
3 net_98:1 net_98:2 0.3643
4 net_98:2 inst_4:A 0.2288
*END

*D_NET net_12 1.4950
*CONN
*I TAUGATE_163:Z O
*I inst_81:A I
*CAP
1 TAUGATE_163:Z 0.3854
2 net_12:1 0.3774
3 net_12:2 0.2731
4 net_12:3 0.1525
5 net_12:4 0.0518
6 inst_81:A 0.2548
*RES
2 TAUGATE_163:Z net_12:1 0.2154
3 net_12:1 net_12:2 0.4921
4 net_12:2 net_12:3 0.1648
5 net_12:3 net_12:4 0.1855
6 net_12:4 inst_81:A 0.0112
*END

*D_NET TAUNET_124 1.1059
*CONN
*I TAUGATE_23:Z O
*I TAUGATE_124:A I
*CAP
1 TAUGATE_23:Z 0.1128
2 TAUNET_124:1 0.0917
3 TAUNET_124:2 0.4230
4 TAUNET_124:3 0.1494
5 TAUGATE_124:A 0.3290
*RES
2 TAUGATE_23:Z TAUNET_124:1 0.1620
3 TAUNET_124:1 TAUNET_124:2 0.0029
4 TAUNET_124:2 TAUNET_124:3 0.2883
5 TAUNET_124:3 TAUGATE_124:A 0.1903
*END

*D_NET TAUNET_217 0.6766
*CONN
*I inst_89:ZN O
*I TAUGATE_217:A I
*CAP
1 inst_89:ZN 0.3484
2 TAUNET_217:1 0.1392
3 TAUGATE_217:A 0.1891
*RES
2 inst_89:ZN TAUNET_217:1 0.0464
3 TAUNET_217:1 TAUGATE_217:A 0.0364
*END

*D_NET net_53 1.0529
*CONN
*I TAUGATE_157:Z O
*I inst_2:A I
*I inst_17:A1 I
*CAP
1 TAUGATE_157:Z 0.4104
2 net_53:1 0.0510
3 inst_2:A 0.1600
4 net_53:2 0.0580
5 inst_17:A1 0.3736
*RES
2 TAUGATE_157:Z net_53:1 0.1748
3 net_53:1 inst_2:A 0.4787
4 net_53:1 net_53:2 0.0395
5 net_53:2 inst_17:A1 0.3644
*END

*D_NET TAUNET_103 2.3814
*CONN
*I inst_98:ZN O
*I TAUGATE_103:A I
*CAP
1 inst_98:ZN 0.1977
2 TAUNET_103:1 0.3877
3 TAUNET_103:2 0.3882
4 TAUNET_103:3 0.4950
5 TAUNET_103:4 0.0413
6 TAUNET_103:5 0.4651
7 TAUGATE_103:A 0.4065
*RES
2 inst_98:ZN TAUNET_103:1 0.3164
3 TAUNET_103:1 TAUNET_103:2 0.3513
4 TAUNET_103:2 TAUNET_103:3 0.1165
5 TAUNET_103:3 TAUNET_103:4 0.0986
6 TAUNET_103:4 TAUNET_103:5 0.2243
7 TAUNET_103:5 TAUGATE_103:A 0.1286
*END

*D_NET net_93 1.4306
*CONN
*I TAUGATE_83:Z O
*I inst_48:A3 I
*CAP
1 TAUGATE_83:Z 0.2482
2 net_93:1 0.1533
3 net_93:2 0.4091
4 net_93:3 0.2613
5 inst_48:A3 0.3587
*RES
2 TAUGATE_83:Z net_93:1 0.1869
3 net_93:1 net_93:2 0.4974
4 net_93:2 net_93:3 0.3047
5 net_93:3 inst_48:A3 0.1200
*END

*D_NET TAUNET_177 0.5270
*CONN
*I inst_103:ZN O
*I TAUGATE_177:A I
*CAP
1 inst_103:ZN 0.1210
2 TAUNET_177:1 0.1014
3 TAUNET_177:2 0.0283
4 TAUGATE_177:A 0.2763
*RES
2 inst_103:ZN TAUNET_177:1 0.2945
3 TAUNET_177:1 TAUNET_177:2 0.3177
4 TAUNET_177:2 TAUGATE_177:A 0.2101
*END

*D_NET TAUNET_270 1.4286
*CONN
*I inst_108:ZN O
*I TAUGATE_270:A I
*CAP
1 inst_108:ZN 0.2046
2 TAUNET_270:1 0.1317
3 TAUNET_270:2 0.3617
4 TAUNET_270:3 0.0856
5 TAUNET_270:4 0.3629
6 TAUGATE_270:A 0.2821
*RES
2 inst_108:ZN TAUNET_270:1 0.3900
3 TAUNET_270:1 TAUNET_270:2 0.0557
4 TAUNET_270:2 TAUNET_270:3 0.1253
5 TAUNET_270:3 TAUNET_270:4 0.2716
6 TAUNET_270:4 TAUGATE_270:A 0.3735
*END

*D_NET TAUNET_255 1.5454
*CONN
*I inst_47:ZN O
*I TAUGATE_255:A I
*CAP
1 inst_47:ZN 0.3323
2 TAUNET_255:1 0.0362
3 TAUNET_255:2 0.4966
4 TAUNET_255:3 0.4101
5 TAUGATE_255:A 0.2702
*RES
2 inst_47:ZN TAUNET_255:1 0.2135
3 TAUNET_255:1 TAUNET_255:2 0.0419
4 TAUNET_255:2 TAUNET_255:3 0.2773
5 TAUNET_255:3 TAUGATE_255:A 0.0903
*END

*D_NET TAUNET_31 2.3457
*CONN
*I TAUGATE_71:Z O
*I TAUGATE_31:A I
*CAP
1 TAUGATE_71:Z 0.4602
2 TAUNET_31:1 0.2009
3 TAUNET_31:2 0.3114
4 TAUNET_31:3 0.3090
5 TAUNET_31:4 0.3972
6 TAUNET_31:5 0.4228
7 TAUGATE_31:A 0.2443
*RES
2 TAUGATE_71:Z TAUNET_31:1 0.2458
3 TAUNET_31:1 TAUNET_31:2 0.3734
4 TAUNET_31:2 TAUNET_31:3 0.1567
5 TAUNET_31:3 TAUNET_31:4 0.1247
6 TAUNET_31:4 TAUNET_31:5 0.2439
7 TAUNET_31:5 TAUGATE_31:A 0.2588
*END

*D_NET TAUNET_243 0.9945
*CONN
*I inst_0:Z O
*I TAUGATE_243:A I
*CAP
1 inst_0:Z 0.3528
2 TAUNET_243:1 0.4436
3 TAUGATE_243:A 0.1981
*RES
2 inst_0:Z TAUNET_243:1 0.3275
3 TAUNET_243:1 TAUGATE_243:A 0.0169
*END

*D_NET TAUNET_71 1.2825
*CONN
*I inst_110:ZN O
*I TAUGATE_71:A I
*CAP
1 inst_110:ZN 0.4684
2 TAUNET_71:1 0.0579
3 TAUNET_71:2 0.0423
4 TAUNET_71:3 0.2861
5 TAUGATE_71:A 0.4278
*RES
2 inst_110:ZN TAUNET_71:1 0.3875
3 TAUNET_71:1 TAUNET_71:2 0.4796
4 TAUNET_71:2 TAUNET_71:3 0.3740
5 TAUNET_71:3 TAUGATE_71:A 0.1554
*END

*D_NET TAUNET_91 2.4087
*CONN
*I TAUGATE_48:Z O
*I TAUGATE_91:A I
*CAP
1 TAUGATE_48:Z 0.4380
2 TAUNET_91:1 0.4990
3 TAUNET_91:2 0.2134
4 TAUNET_91:3 0.1115
5 TAUNET_91:4 0.4947
6 TAUNET_91:5 0.3666
7 TAUGATE_91:A 0.2854
*RES
2 TAUGATE_48:Z TAUNET_91:1 0.4464
3 TAUNET_91:1 TAUNET_91:2 0.2438
4 TAUNET_91:2 TAUNET_91:3 0.2969
5 TAUNET_91:3 TAUNET_91:4 0.3091
6 TAUNET_91:4 TAUNET_91:5 0.5006
7 TAUNET_91:5 TAUGATE_91:A 0.2264
*END

*D_NET TAUNET_57 1.1017
*CONN
*I TAUGATE_252:Z O
*I TAUGATE_57:A I
*CAP
1 TAUGATE_252:Z 0.2044
2 TAUNET_57:1 0.3886
3 TAUNET_57:2 0.2618
4 TAUGATE_57:A 0.2468
*RES
2 TAUGATE_252:Z TAUNET_57:1 0.4002
3 TAUNET_57:1 TAUNET_57:2 0.3652
4 TAUNET_57:2 TAUGATE_57:A 0.1857
*END

*D_NET TAUNET_208 1.1556
*CONN
*I inst_34:ZN O
*I TAUGATE_208:A I
*CAP
1 inst_34:ZN 0.0882
2 TAUNET_208:1 0.2715
3 TAUNET_208:2 0.0199
4 TAUNET_208:3 0.4145
5 TAUNET_208:4 0.1459
6 TAUNET_208:5 0.1130
7 TAUGATE_208:A 0.1026
*RES
2 inst_34:ZN TAUNET_208:1 0.1939
3 TAUNET_208:1 TAUNET_208:2 0.1095
4 TAUNET_208:2 TAUNET_208:3 0.0212
5 TAUNET_208:3 TAUNET_208:4 0.1417
6 TAUNET_208:4 TAUNET_208:5 0.2190
7 TAUNET_208:5 TAUGATE_208:A 0.4826
*END

*D_NET TAUNET_9 1.4876
*CONN
*I TAUGATE_147:Z O
*I TAUGATE_9:A I
*CAP
1 TAUGATE_147:Z 0.4033
2 TAUNET_9:1 0.2540
3 TAUNET_9:2 0.0526
4 TAUNET_9:3 0.2388
5 TAUNET_9:4 0.1787
6 TAUGATE_9:A 0.3603
*RES
2 TAUGATE_147:Z TAUNET_9:1 0.0603
3 TAUNET_9:1 TAUNET_9:2 0.0863
4 TAUNET_9:2 TAUNET_9:3 0.3102
5 TAUNET_9:3 TAUNET_9:4 0.1239
6 TAUNET_9:4 TAUGATE_9:A 0.2473
*END

*D_NET net_127 4.5251
*CONN
*I TAUGATE_145:Z O
*I inst_25:A2 I
*I inst_109:A I
*I inst_43:A2 I
*CAP
1 TAUGATE_145:Z 0.4935
2 net_127:1 0.3995
3 net_127:2 0.4441
4 net_127:3 0.4218
5 inst_25:A2 0.0848
6 net_127:4 0.3985
7 net_127:5 0.0145
8 net_127:6 0.0725
9 net_127:7 0.4492
10 net_127:8 0.3124
11 inst_109:A 0.3685
12 net_127:9 0.4634
13 net_127:10 0.2869
14 net_127:11 0.1646
15 net_127:12 0.1182
16 inst_43:A2 0.0327
*RES
2 TAUGATE_145:Z net_127:1 0.0266
3 net_127:1 net_127:2 0.0274
4 net_127:2 net_127:3 0.4218
5 net_127:3 inst_25:A2 0.2061
6 net_127:2 net_127:4 0.4317
7 net_127:4 net_127:5 0.1801
8 net_127:5 net_127:6 0.2826
9 net_127:6 net_127:7 0.3420
10 net_127:7 net_127:8 0.0965
11 net_127:8 inst_109:A 0.2555
12 net_127:2 net_127:9 0.0608
13 net_127:9 net_127:10 0.3721
14 net_127:10 net_127:11 0.4648
15 net_127:11 net_127:12 0.2376
16 net_127:12 inst_43:A2 0.1146
*END

*D_NET TAUNET_240 0.6447
*CONN
*I inst_135:Q O
*I TAUGATE_240:A I
*CAP
1 inst_135:Q 0.1439
2 TAUNET_240:1 0.2502
3 TAUGATE_240:A 0.2506
*RES
2 inst_135:Q TAUNET_240:1 0.4486
3 TAUNET_240:1 TAUGATE_240:A 0.0641
*END

*D_NET TAUNET_128 0.3299
*CONN
*I inst_61:ZN O
*I TAUGATE_128:A I
*CAP
1 inst_61:ZN 0.0079
2 TAUNET_128:1 0.2219
3 TAUGATE_128:A 0.1001
*RES
2 inst_61:ZN TAUNET_128:1 0.2747
3 TAUNET_128:1 TAUGATE_128:A 0.1704
*END

*D_NET TAUNET_161 0.1666
*CONN
*I TAUGATE_47:Z O
*I TAUGATE_161:A I
*CAP
1 TAUGATE_47:Z 0.0121
2 TAUNET_161:1 0.0267
3 TAUGATE_161:A 0.1278
*RES
2 TAUGATE_47:Z TAUNET_161:1 0.1079
3 TAUNET_161:1 TAUGATE_161:A 0.3621
*END

*D_NET net_76 2.8222
*CONN
*I TAUGATE_137:Z O
*I inst_33:A2 I
*I inst_17:A3 I
*I inst_16:A3 I
*CAP
1 TAUGATE_137:Z 0.3490
2 net_76:1 0.3195
3 net_76:2 0.4748
4 net_76:3 0.2505
5 net_76:4 0.2036
6 net_76:5 0.3990
7 inst_33:A2 0.0185
8 net_76:6 0.0406
9 net_76:7 0.0917
10 net_76:8 0.0078
11 inst_17:A3 0.0227
12 net_76:9 0.3987
13 net_76:10 0.0209
14 net_76:11 0.1182
15 inst_16:A3 0.1067
*RES
2 TAUGATE_137:Z net_76:1 0.3777
3 net_76:1 net_76:2 0.2437
4 net_76:2 net_76:3 0.3641
5 net_76:3 net_76:4 0.1411
6 net_76:4 net_76:5 0.2452
7 net_76:5 inst_33:A2 0.2723
8 net_76:2 net_76:6 0.0264
9 net_76:6 net_76:7 0.0174
10 net_76:7 net_76:8 0.1906
11 net_76:8 inst_17:A3 0.1553
12 net_76:2 net_76:9 0.4881
13 net_76:9 net_76:10 0.3672
14 net_76:10 net_76:11 0.4629
15 net_76:11 inst_16:A3 0.1157
*END

*D_NET TAUNET_249 1.8683
*CONN
*I inst_64:ZN O
*I TAUGATE_249:A I
*CAP
1 inst_64:ZN 0.2138
2 TAUNET_249:1 0.2979
3 TAUNET_249:2 0.3428
4 TAUNET_249:3 0.2325
5 TAUNET_249:4 0.2733
6 TAUNET_249:5 0.1266
7 TAUGATE_249:A 0.3814
*RES
2 inst_64:ZN TAUNET_249:1 0.1363
3 TAUNET_249:1 TAUNET_249:2 0.3277
4 TAUNET_249:2 TAUNET_249:3 0.3144
5 TAUNET_249:3 TAUNET_249:4 0.4503
6 TAUNET_249:4 TAUNET_249:5 0.3676
7 TAUNET_249:5 TAUGATE_249:A 0.1603
*END

*D_NET net_101 1.5235
*CONN
*I TAUGATE_89:Z O
*I inst_23:A3 I
*CAP
1 TAUGATE_89:Z 0.1159
2 net_101:1 0.1465
3 net_101:2 0.1463
4 net_101:3 0.4621
5 net_101:4 0.4065
6 net_101:5 0.0227
7 inst_23:A3 0.2236
*RES
2 TAUGATE_89:Z net_101:1 0.4114
3 net_101:1 net_101:2 0.0715
4 net_101:2 net_101:3 0.1546
5 net_101:3 net_101:4 0.1861
6 net_101:4 net_101:5 0.4367
7 net_101:5 inst_23:A3 0.3452
*END

*D_NET net_111 1.4369
*CONN
*I TAUGATE_225:Z O
*I inst_146:A1 I
*I inst_102:A I
*CAP
1 TAUGATE_225:Z 0.1217
2 net_111:1 0.1222
3 inst_146:A1 0.0613
4 net_111:2 0.2603
5 net_111:3 0.2874
6 net_111:4 0.3072
7 inst_102:A 0.2768
*RES
2 TAUGATE_225:Z net_111:1 0.1692
3 net_111:1 inst_146:A1 0.4407
4 net_111:1 net_111:2 0.1679
5 net_111:2 net_111:3 0.2053
6 net_111:3 net_111:4 0.2140
7 net_111:4 inst_102:A 0.3306
*END

*D_NET net_90 3.0132
*CONN
*I TAUGATE_193:Z O
*I inst_19:A1 I
*I inst_40:A2 I
*I inst_149:A2 I
*CAP
1 TAUGATE_193:Z 0.2580
2 net_90:1 0.4796
3 net_90:2 0.3806
4 net_90:3 0.4946
5 inst_19:A1 0.4608
6 net_90:4 0.4103
7 net_90:5 0.0845
8 inst_40:A2 0.1888
9 net_90:6 0.2069
10 inst_149:A2 0.0491
*RES
2 TAUGATE_193:Z net_90:1 0.4692
3 net_90:1 net_90:2 0.4766
4 net_90:2 net_90:3 0.0589
5 net_90:3 inst_19:A1 0.0962
6 net_90:2 net_90:4 0.1436
7 net_90:4 net_90:5 0.1762
8 net_90:5 inst_40:A2 0.4748
9 net_90:1 net_90:6 0.4137
10 net_90:6 inst_149:A2 0.3046
*END

*D_NET TAUNET_192 1.0479
*CONN
*I TAUGATE_42:Z O
*I TAUGATE_192:A I
*CAP
1 TAUGATE_42:Z 0.2640
2 TAUNET_192:1 0.4110
3 TAUNET_192:2 0.0191
4 TAUGATE_192:A 0.3538
*RES
2 TAUGATE_42:Z TAUNET_192:1 0.4300
3 TAUNET_192:1 TAUNET_192:2 0.3629
4 TAUNET_192:2 TAUGATE_192:A 0.0787
*END

*D_NET TAUNET_151 2.0675
*CONN
*I inst_32:ZN O
*I TAUGATE_151:A I
*CAP
1 inst_32:ZN 0.2971
2 TAUNET_151:1 0.5010
3 TAUNET_151:2 0.3538
4 TAUNET_151:3 0.4649
5 TAUNET_151:4 0.0482
6 TAUNET_151:5 0.1062
7 TAUGATE_151:A 0.2963
*RES
2 inst_32:ZN TAUNET_151:1 0.4911
3 TAUNET_151:1 TAUNET_151:2 0.2002
4 TAUNET_151:2 TAUNET_151:3 0.2573
5 TAUNET_151:3 TAUNET_151:4 0.3761
6 TAUNET_151:4 TAUNET_151:5 0.0616
7 TAUNET_151:5 TAUGATE_151:A 0.4298
*END

*D_NET TAUNET_141 0.5116
*CONN
*I inst_140:QN O
*I TAUGATE_141:A I
*CAP
1 inst_140:QN 0.2634
2 TAUNET_141:1 0.0745
3 TAUGATE_141:A 0.1738
*RES
2 inst_140:QN TAUNET_141:1 0.4336
3 TAUNET_141:1 TAUGATE_141:A 0.4556
*END

*D_NET net_100 3.7871
*CONN
*I TAUGATE_134:Z O
*I inst_6:A I
*I inst_47:A1 I
*I inst_121:A I
*I inst_41:A2 I
*CAP
1 TAUGATE_134:Z 0.0036
2 net_100:1 0.2737
3 net_100:2 0.3095
4 inst_47:A1 0.4895
5 net_100:3 0.3671
6 inst_6:A 0.3815
7 net_100:4 0.1379
8 net_100:5 0.1139
9 net_100:6 0.0489
10 net_100:7 0.0861
11 net_100:8 0.1477
12 inst_121:A 0.4806
13 net_100:9 0.4236
14 net_100:10 0.3328
15 inst_41:A2 0.1906
*RES
2 TAUGATE_134:Z net_100:1 0.4033
3 net_100:1 net_100:2 0.2734
4 net_100:2 inst_47:A1 0.3461
5 net_100:2 net_100:3 0.1458
6 net_100:3 inst_6:A 0.4915
7 net_100:2 net_100:4 0.3473
8 net_100:4 net_100:5 0.1114
9 net_100:5 net_100:6 0.0198
10 net_100:6 net_100:7 0.2366
11 net_100:7 net_100:8 0.1100
12 net_100:8 inst_121:A 0.2818
13 net_100:5 net_100:9 0.5003
14 net_100:9 net_100:10 0.4347
15 net_100:10 inst_41:A2 0.3044
*END

*D_NET net_85 1.5228
*CONN
*I TAUGATE_241:Z O
*I inst_74:A2 I
*CAP
1 TAUGATE_241:Z 0.0096
2 net_85:1 0.2377
3 net_85:2 0.2571
4 net_85:3 0.3610
5 net_85:4 0.0042
6 net_85:5 0.2690
7 inst_74:A2 0.3841
*RES
2 TAUGATE_241:Z net_85:1 0.3400
3 net_85:1 net_85:2 0.2352
4 net_85:2 net_85:3 0.3112
5 net_85:3 net_85:4 0.1345
6 net_85:4 net_85:5 0.4134
7 net_85:5 inst_74:A2 0.0741
*END

*D_NET net_124 2.3261
*CONN
*I TAUGATE_143:Z O
*I inst_25:A1 I
*I inst_111:A I
*I inst_43:A3 I
*CAP
1 TAUGATE_143:Z 0.4891
2 net_124:1 0.2122
3 inst_43:A3 0.2034
4 net_124:2 0.0283
5 net_124:3 0.2644
6 inst_111:A 0.3395
7 net_124:4 0.0520
8 net_124:5 0.1787
9 net_124:6 0.3277
10 inst_25:A1 0.2308
*RES
2 TAUGATE_143:Z net_124:1 0.1253
3 net_124:1 inst_43:A3 0.2112
4 net_124:1 net_124:2 0.4160
5 net_124:2 net_124:3 0.1311
6 net_124:3 inst_111:A 0.1702
7 net_124:2 net_124:4 0.1825
8 net_124:4 net_124:5 0.4154
9 net_124:5 net_124:6 0.4205
10 net_124:6 inst_25:A1 0.1921
*END

*D_NET CLR 4.2438
*CONN
*I TAUGATE_130:Z O
*I inst_27:A2 I
*I inst_26:A2 I
*I inst_82:A I
*I inst_113:A I
*CAP
1 TAUGATE_130:Z 0.0500
2 CLR:1 0.2552
3 CLR:2 0.2397
4 CLR:3 0.3943
5 CLR:4 0.0450
6 inst_82:A 0.3586
7 CLR:5 0.0277
8 CLR:6 0.2232
9 CLR:7 0.0700
10 CLR:8 0.3825
11 inst_26:A2 0.4916
12 CLR:9 0.2996
13 inst_27:A2 0.1500
14 CLR:10 0.2976
15 CLR:11 0.3531
16 CLR:12 0.0316
17 CLR:13 0.1823
18 CLR:14 0.0755
19 inst_113:A 0.3163
*RES
2 TAUGATE_130:Z CLR:1 0.1804
3 CLR:1 CLR:2 0.2132
4 CLR:2 CLR:3 0.3448
5 CLR:3 CLR:4 0.2539
6 CLR:4 inst_82:A 0.0169
7 CLR:3 CLR:5 0.0258
8 CLR:5 CLR:6 0.0722
9 CLR:6 CLR:7 0.0268
10 CLR:7 CLR:8 0.0274
11 CLR:8 inst_26:A2 0.0955
12 CLR:1 CLR:9 0.2720
13 CLR:9 inst_27:A2 0.0605
14 CLR:4 CLR:10 0.3515
15 CLR:10 CLR:11 0.2983
16 CLR:11 CLR:12 0.4269
17 CLR:12 CLR:13 0.0493
18 CLR:13 CLR:14 0.0341
19 CLR:14 inst_113:A 0.3020
*END

*D_NET TAUNET_49 1.2913
*CONN
*I TAUGATE_232:Z O
*I TAUGATE_49:A I
*CAP
1 TAUGATE_232:Z 0.4000
2 TAUNET_49:1 0.4709
3 TAUGATE_49:A 0.4204
*RES
2 TAUGATE_232:Z TAUNET_49:1 0.0122
3 TAUNET_49:1 TAUGATE_49:A 0.2688
*END

*D_NET TAUNET_201 0.9187
*CONN
*I inst_146:ZN O
*I TAUGATE_201:A I
*CAP
1 inst_146:ZN 0.3051
2 TAUNET_201:1 0.2956
3 TAUNET_201:2 0.2210
4 TAUGATE_201:A 0.0970
*RES
2 inst_146:ZN TAUNET_201:1 0.2798
3 TAUNET_201:1 TAUNET_201:2 0.3150
4 TAUNET_201:2 TAUGATE_201:A 0.0137
*END

*D_NET TAUNET_87 0.8876
*CONN
*I inst_18:ZN O
*I TAUGATE_87:A I
*CAP
1 inst_18:ZN 0.3101
2 TAUNET_87:1 0.2047
3 TAUGATE_87:A 0.3729
*RES
2 inst_18:ZN TAUNET_87:1 0.0610
3 TAUNET_87:1 TAUGATE_87:A 0.4010
*END

*D_NET TAUNET_231 1.9020
*CONN
*I inst_9:ZN O
*I TAUGATE_231:A I
*CAP
1 inst_9:ZN 0.3768
2 TAUNET_231:1 0.1250
3 TAUNET_231:2 0.3526
4 TAUNET_231:3 0.3715
5 TAUNET_231:4 0.3144
6 TAUGATE_231:A 0.3618
*RES
2 inst_9:ZN TAUNET_231:1 0.0820
3 TAUNET_231:1 TAUNET_231:2 0.2174
4 TAUNET_231:2 TAUNET_231:3 0.3638
5 TAUNET_231:3 TAUNET_231:4 0.4097
6 TAUNET_231:4 TAUGATE_231:A 0.2418
*END

*D_NET net_115 2.8089
*CONN
*I TAUGATE_166:Z O
*I inst_22:A1 I
*I inst_39:A2 I
*I inst_23:A1 I
*CAP
1 TAUGATE_166:Z 0.3118
2 net_115:1 0.3134
3 net_115:2 0.4059
4 net_115:3 0.1396
5 net_115:4 0.0910
6 net_115:5 0.1278
7 inst_23:A1 0.3093
8 net_115:6 0.0521
9 inst_39:A2 0.0546
10 net_115:7 0.1466
11 net_115:8 0.2784
12 net_115:9 0.2008
13 inst_22:A1 0.3776
*RES
2 TAUGATE_166:Z net_115:1 0.3342
3 net_115:1 net_115:2 0.2150
4 net_115:2 net_115:3 0.0109
5 net_115:3 net_115:4 0.1830
6 net_115:4 net_115:5 0.2298
7 net_115:5 inst_23:A1 0.0712
8 net_115:2 net_115:6 0.0043
9 net_115:6 inst_39:A2 0.2737
10 net_115:4 net_115:7 0.2937
11 net_115:7 net_115:8 0.0093
12 net_115:8 net_115:9 0.2822
13 net_115:9 inst_22:A1 0.4311
*END

*D_NET TAUNET_50 1.6512
*CONN
*I TAUGATE_79:Z O
*I TAUGATE_50:A I
*CAP
1 TAUGATE_79:Z 0.1138
2 TAUNET_50:1 0.3567
3 TAUNET_50:2 0.3242
4 TAUNET_50:3 0.2336
5 TAUNET_50:4 0.3863
6 TAUGATE_50:A 0.2365
*RES
2 TAUGATE_79:Z TAUNET_50:1 0.1037
3 TAUNET_50:1 TAUNET_50:2 0.3572
4 TAUNET_50:2 TAUNET_50:3 0.2211
5 TAUNET_50:3 TAUNET_50:4 0.2185
6 TAUNET_50:4 TAUGATE_50:A 0.2266
*END

*D_NET RED1 1.9002
*CONN
*I TAUGATE_240:Z O
*P RED1 O
*CAP
1 TAUGATE_240:Z 0.1297
2 RED1:1 0.2417
3 RED1:2 0.2444
4 RED1:3 0.4262
5 RED1:4 0.3737
6 RED1:5 0.3015
7 RED1 0.1830
*RES
2 TAUGATE_240:Z RED1:1 0.3035
3 RED1:1 RED1:2 0.4053
4 RED1:2 RED1:3 0.0863
5 RED1:3 RED1:4 0.2362
6 RED1:4 RED1:5 0.1365
7 RED1:5 RED1 0.0277
*END

*D_NET TAUNET_72 0.8486
*CONN
*I inst_86:ZN O
*I TAUGATE_72:A I
*CAP
1 inst_86:ZN 0.2912
2 TAUNET_72:1 0.3711
3 TAUNET_72:2 0.0512
4 TAUGATE_72:A 0.1351
*RES
2 inst_86:ZN TAUNET_72:1 0.0984
3 TAUNET_72:1 TAUNET_72:2 0.0368
4 TAUNET_72:2 TAUGATE_72:A 0.4376
*END

*D_NET net_4 1.3959
*CONN
*I TAUGATE_238:Z O
*I inst_77:A I
*CAP
1 TAUGATE_238:Z 0.1283
2 net_4:1 0.3234
3 net_4:2 0.4610
4 inst_77:A 0.4832
*RES
2 TAUGATE_238:Z net_4:1 0.2776
3 net_4:1 net_4:2 0.3781
4 net_4:2 inst_77:A 0.3766
*END

*D_NET net_17 3.4619
*CONN
*I TAUGATE_178:Z O
*I inst_42:A3 I
*I inst_88:A I
*I inst_87:A I
*CAP
1 TAUGATE_178:Z 0.3877
2 net_17:1 0.3738
3 net_17:2 0.4556
4 inst_42:A3 0.1835
5 net_17:3 0.1158
6 net_17:4 0.1153
7 net_17:5 0.3810
8 net_17:6 0.1100
9 net_17:7 0.1662
10 inst_88:A 0.3178
11 net_17:8 0.0945
12 net_17:9 0.2326
13 net_17:10 0.0121
14 net_17:11 0.2674
15 net_17:12 0.2072
16 inst_87:A 0.0414
*RES
2 TAUGATE_178:Z net_17:1 0.0020
3 net_17:1 net_17:2 0.2614
4 net_17:2 inst_42:A3 0.3010
5 net_17:1 net_17:3 0.2541
6 net_17:3 net_17:4 0.2497
7 net_17:4 net_17:5 0.4625
8 net_17:5 net_17:6 0.2343
9 net_17:6 net_17:7 0.0981
10 net_17:7 inst_88:A 0.3461
11 net_17:3 net_17:8 0.2455
12 net_17:8 net_17:9 0.1970
13 net_17:9 net_17:10 0.0138
14 net_17:10 net_17:11 0.4527
15 net_17:11 net_17:12 0.3131
16 net_17:12 inst_87:A 0.4392
*END

*D_NET TAUNET_134 1.6917
*CONN
*I TAUGATE_35:Z O
*I TAUGATE_134:A I
*CAP
1 TAUGATE_35:Z 0.0368
2 TAUNET_134:1 0.2266
3 TAUNET_134:2 0.4199
4 TAUNET_134:3 0.3736
5 TAUNET_134:4 0.3306
6 TAUGATE_134:A 0.3042
*RES
2 TAUGATE_35:Z TAUNET_134:1 0.1317
3 TAUNET_134:1 TAUNET_134:2 0.1481
4 TAUNET_134:2 TAUNET_134:3 0.2485
5 TAUNET_134:3 TAUNET_134:4 0.2201
6 TAUNET_134:4 TAUGATE_134:A 0.2966
*END

*D_NET TAUNET_267 0.5227
*CONN
*I TAUGATE_16:Z O
*I TAUGATE_267:A I
*CAP
1 TAUGATE_16:Z 0.0758
2 TAUNET_267:1 0.3812
3 TAUGATE_267:A 0.0656
*RES
2 TAUGATE_16:Z TAUNET_267:1 0.1550
3 TAUNET_267:1 TAUGATE_267:A 0.0047
*END

*D_NET TAUNET_19 1.6139
*CONN
*I TAUGATE_234:Z O
*I TAUGATE_19:A I
*CAP
1 TAUGATE_234:Z 0.2138
2 TAUNET_19:1 0.2523
3 TAUNET_19:2 0.0497
4 TAUNET_19:3 0.4938
5 TAUNET_19:4 0.3913
6 TAUGATE_19:A 0.2131
*RES
2 TAUGATE_234:Z TAUNET_19:1 0.3201
3 TAUNET_19:1 TAUNET_19:2 0.0320
4 TAUNET_19:2 TAUNET_19:3 0.2786
5 TAUNET_19:3 TAUNET_19:4 0.3378
6 TAUNET_19:4 TAUGATE_19:A 0.4364
*END

*D_NET TAUNET_34 1.5961
*CONN
*I TAUGATE_127:Z O
*I TAUGATE_34:A I
*CAP
1 TAUGATE_127:Z 0.4527
2 TAUNET_34:1 0.3641
3 TAUNET_34:2 0.1740
4 TAUNET_34:3 0.2701
5 TAUGATE_34:A 0.3351
*RES
2 TAUGATE_127:Z TAUNET_34:1 0.4105
3 TAUNET_34:1 TAUNET_34:2 0.3004
4 TAUNET_34:2 TAUNET_34:3 0.3665
5 TAUNET_34:3 TAUGATE_34:A 0.1341
*END

*D_NET TAUNET_236 0.7589
*CONN
*I inst_36:ZN O
*I TAUGATE_236:A I
*CAP
1 inst_36:ZN 0.1706
2 TAUNET_236:1 0.0751
3 TAUNET_236:2 0.1227
4 TAUNET_236:3 0.0294
5 TAUNET_236:4 0.0059
6 TAUGATE_236:A 0.3552
*RES
2 inst_36:ZN TAUNET_236:1 0.3839
3 TAUNET_236:1 TAUNET_236:2 0.1840
4 TAUNET_236:2 TAUNET_236:3 0.4010
5 TAUNET_236:3 TAUNET_236:4 0.3573
6 TAUNET_236:4 TAUGATE_236:A 0.4559
*END

*D_NET net_87 2.8028
*CONN
*I TAUGATE_150:Z O
*I inst_3:B I
*I inst_54:A2 I
*CAP
1 TAUGATE_150:Z 0.1715
2 net_87:1 0.3594
3 net_87:2 0.4902
4 net_87:3 0.4716
5 net_87:4 0.2112
6 inst_54:A2 0.1762
7 net_87:5 0.4669
8 net_87:6 0.1932
9 net_87:7 0.0675
10 net_87:8 0.0053
11 net_87:9 0.1459
12 inst_3:B 0.0437
*RES
2 TAUGATE_150:Z net_87:1 0.1166
3 net_87:1 net_87:2 0.1660
4 net_87:2 net_87:3 0.2177
5 net_87:3 net_87:4 0.2908
6 net_87:4 inst_54:A2 0.3318
7 net_87:3 net_87:5 0.4598
8 net_87:5 net_87:6 0.3838
9 net_87:6 net_87:7 0.2033
10 net_87:7 net_87:8 0.3263
11 net_87:8 net_87:9 0.4574
12 net_87:9 inst_3:B 0.4683
*END

*D_NET TAUNET_264 1.4761
*CONN
*I inst_3:ZN O
*I TAUGATE_264:A I
*CAP
1 inst_3:ZN 0.4873
2 TAUNET_264:1 0.4800
3 TAUNET_264:2 0.4518
4 TAUGATE_264:A 0.0570
*RES
2 inst_3:ZN TAUNET_264:1 0.4909
3 TAUNET_264:1 TAUNET_264:2 0.0572
4 TAUNET_264:2 TAUGATE_264:A 0.5008
*END

*D_NET net_0 2.4403
*CONN
*I TAUGATE_229:Z O
*I inst_83:A I
*CAP
1 TAUGATE_229:Z 0.2457
2 net_0:1 0.2594
3 net_0:2 0.3565
4 net_0:3 0.4074
5 net_0:4 0.4309
6 net_0:5 0.4474
7 inst_83:A 0.2931
*RES
2 TAUGATE_229:Z net_0:1 0.2848
3 net_0:1 net_0:2 0.2246
4 net_0:2 net_0:3 0.3320
5 net_0:3 net_0:4 0.3870
6 net_0:4 net_0:5 0.3663
7 net_0:5 inst_83:A 0.1512
*END

*D_NET TAUNET_44 2.3961
*CONN
*I TAUGATE_169:Z O
*I TAUGATE_44:A I
*CAP
1 TAUGATE_169:Z 0.4493
2 TAUNET_44:1 0.2866
3 TAUNET_44:2 0.1873
4 TAUNET_44:3 0.1599
5 TAUNET_44:4 0.3589
6 TAUNET_44:5 0.4697
7 TAUGATE_44:A 0.4844
*RES
2 TAUGATE_169:Z TAUNET_44:1 0.0401
3 TAUNET_44:1 TAUNET_44:2 0.2861
4 TAUNET_44:2 TAUNET_44:3 0.1883
5 TAUNET_44:3 TAUNET_44:4 0.3075
6 TAUNET_44:4 TAUNET_44:5 0.0604
7 TAUNET_44:5 TAUGATE_44:A 0.3908
*END

*D_NET TAUNET_207 1.0274
*CONN
*I TAUGATE_39:Z O
*I TAUGATE_207:A I
*CAP
1 TAUGATE_39:Z 0.4162
2 TAUNET_207:1 0.0491
3 TAUNET_207:2 0.3511
4 TAUGATE_207:A 0.2111
*RES
2 TAUGATE_39:Z TAUNET_207:1 0.3010
3 TAUNET_207:1 TAUNET_207:2 0.1515
4 TAUNET_207:2 TAUGATE_207:A 0.0492
*END

*D_NET TAUNET_185 1.1227
*CONN
*I inst_149:ZN O
*I TAUGATE_185:A I
*CAP
1 inst_149:ZN 0.0711
2 TAUNET_185:1 0.0021
3 TAUNET_185:2 0.2080
4 TAUNET_185:3 0.3529
5 TAUGATE_185:A 0.4886
*RES
2 inst_149:ZN TAUNET_185:1 0.3648
3 TAUNET_185:1 TAUNET_185:2 0.4404
4 TAUNET_185:2 TAUNET_185:3 0.3187
5 TAUNET_185:3 TAUGATE_185:A 0.4272
*END

*D_NET net_35 3.1956
*CONN
*I TAUGATE_61:Z O
*I inst_9:A1 I
*I inst_119:A I
*CAP
1 TAUGATE_61:Z 0.4026
2 net_35:1 0.1803
3 net_35:2 0.0882
4 net_35:3 0.2924
5 inst_9:A1 0.4780
6 net_35:4 0.0762
7 net_35:5 0.1986
8 net_35:6 0.3922
9 net_35:7 0.3950
10 net_35:8 0.2666
11 inst_119:A 0.4255
*RES
2 TAUGATE_61:Z net_35:1 0.3510
3 net_35:1 net_35:2 0.1182
4 net_35:2 net_35:3 0.2614
5 net_35:3 inst_9:A1 0.1530
6 net_35:2 net_35:4 0.4671
7 net_35:4 net_35:5 0.2972
8 net_35:5 net_35:6 0.3936
9 net_35:6 net_35:7 0.4880
10 net_35:7 net_35:8 0.4169
11 net_35:8 inst_119:A 0.3167
*END

*D_NET net_16 2.6904
*CONN
*I TAUGATE_108:Z O
*I inst_86:A I
*I inst_59:A1 I
*CAP
1 TAUGATE_108:Z 0.1073
2 net_16:1 0.1300
3 net_16:2 0.3795
4 net_16:3 0.2362
5 net_16:4 0.1908
6 inst_59:A1 0.1996
7 net_16:5 0.3466
8 net_16:6 0.4948
9 net_16:7 0.4038
10 net_16:8 0.1954
11 inst_86:A 0.0063
*RES
2 TAUGATE_108:Z net_16:1 0.3123
3 net_16:1 net_16:2 0.1251
4 net_16:2 net_16:3 0.0048
5 net_16:3 net_16:4 0.3126
6 net_16:4 inst_59:A1 0.0195
7 net_16:4 net_16:5 0.4904
8 net_16:5 net_16:6 0.0915
9 net_16:6 net_16:7 0.4619
10 net_16:7 net_16:8 0.1065
11 net_16:8 inst_86:A 0.1990
*END

*D_NET TAUNET_56 0.5577
*CONN
*I TAUGATE_148:Z O
*I TAUGATE_56:A I
*CAP
1 TAUGATE_148:Z 0.0690
2 TAUNET_56:1 0.2934
3 TAUNET_56:2 0.0661
4 TAUNET_56:3 0.0281
5 TAUGATE_56:A 0.1011
*RES
2 TAUGATE_148:Z TAUNET_56:1 0.2539
3 TAUNET_56:1 TAUNET_56:2 0.0765
4 TAUNET_56:2 TAUNET_56:3 0.1980
5 TAUNET_56:3 TAUGATE_56:A 0.3226
*END

*D_NET TAUNET_102 2.4686
*CONN
*I inst_55:ZN O
*I TAUGATE_102:A I
*CAP
1 inst_55:ZN 0.2766
2 TAUNET_102:1 0.4267
3 TAUNET_102:2 0.4596
4 TAUNET_102:3 0.3295
5 TAUNET_102:4 0.4724
6 TAUNET_102:5 0.4631
7 TAUGATE_102:A 0.0407
*RES
2 inst_55:ZN TAUNET_102:1 0.4130
3 TAUNET_102:1 TAUNET_102:2 0.3462
4 TAUNET_102:2 TAUNET_102:3 0.0714
5 TAUNET_102:3 TAUNET_102:4 0.2110
6 TAUNET_102:4 TAUNET_102:5 0.2588
7 TAUNET_102:5 TAUGATE_102:A 0.0339
*END

*D_NET TAUNET_110 0.9948
*CONN
*I inst_105:ZN O
*I TAUGATE_110:A I
*CAP
1 inst_105:ZN 0.4874
2 TAUNET_110:1 0.2489
3 TAUGATE_110:A 0.2584
*RES
2 inst_105:ZN TAUNET_110:1 0.0346
3 TAUNET_110:1 TAUGATE_110:A 0.4333
*END

*D_NET TAUNET_41 1.2318
*CONN
*I TAUGATE_265:Z O
*I TAUGATE_41:A I
*CAP
1 TAUGATE_265:Z 0.3416
2 TAUNET_41:1 0.1540
3 TAUNET_41:2 0.0325
4 TAUNET_41:3 0.0924
5 TAUNET_41:4 0.1850
6 TAUNET_41:5 0.1516
7 TAUGATE_41:A 0.2746
*RES
2 TAUGATE_265:Z TAUNET_41:1 0.4228
3 TAUNET_41:1 TAUNET_41:2 0.1417
4 TAUNET_41:2 TAUNET_41:3 0.3754
5 TAUNET_41:3 TAUNET_41:4 0.2016
6 TAUNET_41:4 TAUNET_41:5 0.0068
7 TAUNET_41:5 TAUGATE_41:A 0.2001
*END

*D_NET TAUNET_164 1.0932
*CONN
*I TAUGATE_30:Z O
*I TAUGATE_164:A I
*CAP
1 TAUGATE_30:Z 0.4926
2 TAUNET_164:1 0.3810
3 TAUGATE_164:A 0.2195
*RES
2 TAUGATE_30:Z TAUNET_164:1 0.2042
3 TAUNET_164:1 TAUGATE_164:A 0.2030
*END

*D_NET net_42 1.9497
*CONN
*I TAUGATE_103:Z O
*I inst_31:A1 I
*I inst_30:A1 I
*CAP
1 TAUGATE_103:Z 0.4413
2 net_42:1 0.4042
3 net_42:2 0.0451
4 inst_30:A1 0.2391
5 net_42:3 0.4797
6 net_42:4 0.0551
7 net_42:5 0.1877
8 inst_31:A1 0.0973
*RES
2 TAUGATE_103:Z net_42:1 0.0321
3 net_42:1 net_42:2 0.4146
4 net_42:2 inst_30:A1 0.0857
5 net_42:2 net_42:3 0.4235
6 net_42:3 net_42:4 0.1903
7 net_42:4 net_42:5 0.2143
8 net_42:5 inst_31:A1 0.0701
*END

*D_NET net_120 1.7676
*CONN
*I TAUGATE_212:Z O
*I inst_49:A1 I
*CAP
1 TAUGATE_212:Z 0.4634
2 net_120:1 0.2766
3 net_120:2 0.3086
4 net_120:3 0.2353
5 inst_49:A1 0.4838
*RES
2 TAUGATE_212:Z net_120:1 0.0722
3 net_120:1 net_120:2 0.3539
4 net_120:2 net_120:3 0.3446
5 net_120:3 inst_49:A1 0.0192
*END

*D_NET TAUNET_142 1.5540
*CONN
*I TAUGATE_2:Z O
*I TAUGATE_142:A I
*CAP
1 TAUGATE_2:Z 0.4054
2 TAUNET_142:1 0.4419
3 TAUNET_142:2 0.1561
4 TAUNET_142:3 0.1347
5 TAUNET_142:4 0.0224
6 TAUGATE_142:A 0.3933
*RES
2 TAUGATE_2:Z TAUNET_142:1 0.2244
3 TAUNET_142:1 TAUNET_142:2 0.4154
4 TAUNET_142:2 TAUNET_142:3 0.1374
5 TAUNET_142:3 TAUNET_142:4 0.1713
6 TAUNET_142:4 TAUGATE_142:A 0.2153
*END

*D_NET TAUNET_64 1.6905
*CONN
*I inst_63:ZN O
*I TAUGATE_64:A I
*CAP
1 inst_63:ZN 0.4918
2 TAUNET_64:1 0.0251
3 TAUNET_64:2 0.0071
4 TAUNET_64:3 0.2242
5 TAUNET_64:4 0.4834
6 TAUGATE_64:A 0.4589
*RES
2 inst_63:ZN TAUNET_64:1 0.0098
3 TAUNET_64:1 TAUNET_64:2 0.3264
4 TAUNET_64:2 TAUNET_64:3 0.2846
5 TAUNET_64:3 TAUNET_64:4 0.4721
6 TAUNET_64:4 TAUGATE_64:A 0.1185
*END

*D_NET TAUNET_211 1.2448
*CONN
*I inst_138:QN O
*I TAUGATE_211:A I
*CAP
1 inst_138:QN 0.3703
2 TAUNET_211:1 0.4409
3 TAUGATE_211:A 0.4335
*RES
2 inst_138:QN TAUNET_211:1 0.3158
3 TAUNET_211:1 TAUGATE_211:A 0.2513
*END

*D_NET TAUNET_221 1.1989
*CONN
*I inst_126:QN O