*SPEF "IEEE 1481-1998"
*DESIGN "changes"
*DATE "Mon Jan 05 14:30:30 2015"
*VENDOR "TAU 2015 Contest"
*PROGRAM "Benchmark Parasitic Generator"
*VERSION "0.0"
*DESIGN_FLOW "NETLIST_TYPE_VERILOG"
*DIVIDER /
*DELIMITER :
*BUS_DELIMITER [ ]
*T_UNIT 1 PS
*C_UNIT 1 FF
*R_UNIT 1 KOHM
*L_UNIT 1 UH

*D_NET net_56 3.0173
*CONN
*I TAUGATE_1:Z O
*I inst_38:A1 I
*I inst_13:A3 I
*CAP
1 TAUGATE_1:Z 0.2611
2 net_56:1 0.4098
3 net_56:2 0.5009
4 net_56:3 0.2843
5 inst_38:A1 0.2878
6 net_56:4 0.4685
7 net_56:5 0.3070
8 net_56:6 0.3583
9 inst_13:A3 0.1395
*RES
2 TAUGATE_1:Z net_56:1 0.1659
3 net_56:1 net_56:2 0.2742
4 net_56:2 net_56:3 0.3494
5 net_56:3 inst_38:A1 0.1485
6 net_56:3 net_56:4 0.0646
7 net_56:4 net_56:5 0.0794
8 net_56:5 net_56:6 0.2161
9 net_56:6 inst_13:A3 0.1614
*END

*D_NET TAUNET_1 1.8183
*CONN
*I inst_119:ZN O
*I TAUGATE_1:A I
*CAP
1 inst_119:ZN 0.3755
2 TAUNET_1:1 0.4559
3 TAUNET_1:2 0.4050
4 TAUNET_1:3 0.0154
5 TAUNET_1:4 0.1670
6 TAUNET_1:5 0.1555
7 TAUGATE_1:A 0.2440
*RES
2 inst_119:ZN TAUNET_1:1 0.0332
3 TAUNET_1:1 TAUNET_1:2 0.0406
4 TAUNET_1:2 TAUNET_1:3 0.2732
5 TAUNET_1:3 TAUNET_1:4 0.0073
6 TAUNET_1:4 TAUNET_1:5 0.1308
7 TAUNET_1:5 TAUGATE_1:A 0.1374
*END

