*SPEF "IEEE 1481-1998"
*DESIGN "changes"
*DATE "Mon Jan 05 14:30:31 2015"
*VENDOR "TAU 2015 Contest"
*PROGRAM "Benchmark Parasitic Generator"
*VERSION "0.0"
*DESIGN_FLOW "NETLIST_TYPE_VERILOG"
*DIVIDER /
*DELIMITER :
*BUS_DELIMITER [ ]
*T_UNIT 1 PS
*C_UNIT 1 FF
*R_UNIT 1 KOHM
*L_UNIT 1 UH

*D_NET TAUNET_210 1.7439
*CONN
*I TAUGATE_155:Z O
*I TAUGATE_210:A I
*CAP
1 TAUGATE_155:Z 0.2611
2 TAUNET_210:1 0.4098
3 TAUNET_210:2 0.5009
4 TAUNET_210:3 0.2843
5 TAUGATE_210:A 0.2878
*RES
2 TAUGATE_155:Z TAUNET_210:1 0.1659
3 TAUNET_210:1 TAUNET_210:2 0.2742
4 TAUNET_210:2 TAUNET_210:3 0.3494
5 TAUNET_210:3 TAUGATE_210:A 0.1485
*END

*D_NET net_138 1.3760
*CONN
*I inst_73:ZN O
*I inst_48:A1 I
*CAP
1 inst_73:ZN 0.2110
2 net_138:1 0.3070
3 net_138:2 0.3583
4 net_138:3 0.1395
5 net_138:4 0.0646
6 net_138:5 0.0794
7 inst_48:A1 0.2161
*RES
2 inst_73:ZN net_138:1 0.1614
3 net_138:1 net_138:2 0.3312
4 net_138:2 net_138:3 0.3755
5 net_138:3 net_138:4 0.4644
6 net_138:4 net_138:5 0.4559
7 net_138:5 inst_48:A1 0.4050
*END

*D_NET net_39 0.4849
*CONN
*I inst_61:ZN O
*I inst_64:A1 I
*CAP
1 inst_61:ZN 0.1670
2 net_39:1 0.2440
3 net_39:2 0.0332
4 inst_64:A1 0.0406
*RES
2 inst_61:ZN net_39:1 0.2732
3 net_39:1 net_39:2 0.0073
4 net_39:2 inst_64:A1 0.1308
*END

*D_NET TAUNET_206 1.8161
*CONN
*I TAUGATE_111:Z O
*I TAUGATE_206:A I
*CAP
1 TAUGATE_111:Z 0.2909
2 TAUNET_206:1 0.0740
3 TAUNET_206:2 0.4871
4 TAUNET_206:3 0.4951
5 TAUNET_206:4 0.4125
6 TAUGATE_206:A 0.0565
*RES
2 TAUGATE_111:Z TAUNET_206:1 0.1285
3 TAUNET_206:1 TAUNET_206:2 0.0292
4 TAUNET_206:2 TAUNET_206:3 0.2926
5 TAUNET_206:3 TAUNET_206:4 0.4507
6 TAUNET_206:4 TAUGATE_206:A 0.3356
*END

*D_NET net_61 1.9602
*CONN
*I TAUGATE_15:Z O
*I inst_10:A2 I
*CAP
1 TAUGATE_15:Z 0.3845
2 net_61:1 0.3056
3 net_61:2 0.3464
4 net_61:3 0.0305
5 net_61:4 0.2383
6 net_61:5 0.4020
7 inst_10:A2 0.2529
*RES
2 TAUGATE_15:Z net_61:1 0.2665
3 net_61:1 net_61:2 0.4354
4 net_61:2 net_61:3 0.1977
5 net_61:3 net_61:4 0.0788
6 net_61:4 net_61:5 0.3276
7 net_61:5 inst_10:A2 0.3833
*END

