*SPEF "IEEE 1481-1998"
*DESIGN "s400"
*DATE "Tue Nov 25 16:55:08 2014"
*VENDOR "TAU 2015 Contest"
*PROGRAM "Benchmark Parasitic Generator"
*VERSION "0.0"
*DESIGN_FLOW "NETLIST_TYPE_VERILOG"
*DIVIDER /
*DELIMITER :
*BUS_DELIMITER [ ]
*T_UNIT 1 PS
*C_UNIT 1 FF
*R_UNIT 1 KOHM
*L_UNIT 1 UH

*D_NET net_166 0.8718
*CONN
*I inst_172:Z O
*I inst_173:A I
*CAP
1 inst_172:Z 0.1285
2 net_166:1 0.2926
3 inst_173:A 0.4507
*RES
2 inst_172:Z net_166:1 0.3356
3 net_166:1 inst_173:A 0.3995
*END

*D_NET net_107 0.3697
*CONN
*I inst_21:ZN O
*I inst_140:D I
*CAP
1 inst_21:ZN 0.0077
2 inst_140:D 0.0143
3 net_107:1 0.0160
4 net_107:2 0.0191
5 net_107:3 0.0191
6 net_107:4 0.0857
7 net_107:5 0.0857
8 net_107:6 0.0498
9 net_107:7 0.0498
10 net_107:8 0.0226
*RES
2 inst_21:ZN net_107:1 0.0010
3 inst_140:D net_107:8 0.0021
4 net_107:2 net_107:1 0.0050
5 net_107:2 net_107:3 0.0010
6 net_107:4 net_107:3 0.0050
7 net_107:5 net_107:4 0.0075
8 net_107:6 net_107:5 0.0050
9 net_107:6 net_107:7 0.0040
10 net_107:8 net_107:7 0.0050
*END

*D_NET net_47 0.1896
*CONN
*I inst_63:ZN O
*I inst_145:A2 I
*CAP
1 inst_63:ZN 0.0166
2 inst_145:A2 0.0166
3 net_47:1 0.0152
4 net_47:2 0.0630
5 net_47:3 0.0630
6 net_47:4 0.0152
*RES
2 inst_63:ZN net_47:4 0.0050
3 net_47:1 inst_145:A2 0.0050
4 net_47:2 net_47:1 0.0050
5 net_47:3 net_47:2 0.0047
6 net_47:4 net_47:3 0.0050
*END

*D_NET net_179 2.6410
*CONN
*I inst_185:Z O
*I inst_186:A I
*I inst_203:A I
*CAP
1 inst_185:Z 0.4708
2 net_179:1 0.3464
3 net_179:2 0.0305
4 net_179:3 0.2383
5 net_179:4 0.4020
6 inst_203:A 0.2529
7 net_179:5 0.0716
8 net_179:6 0.2236
9 net_179:7 0.1922
10 net_179:8 0.2805
11 inst_186:A 0.1322
*RES
2 inst_185:Z net_179:1 0.2665
3 net_179:1 net_179:2 0.4354
4 net_179:2 net_179:3 0.1977
5 net_179:3 net_179:4 0.0788
6 net_179:4 inst_203:A 0.3276
7 net_179:4 net_179:5 0.1905
8 net_179:5 net_179:6 0.4017
9 net_179:6 net_179:7 0.4680
10 net_179:7 net_179:8 0.2976
11 net_179:8 inst_186:A 0.2331
*END

*D_NET GRN1 1.0897
*CONN
*I inst_137:Q O
*P GRN1 O
*CAP
1 GRN1 0.0152
2 inst_137:Q 0.0166
3 GRN1:1 0.2123
4 GRN1:2 0.2123
5 GRN1:3 0.2343
6 GRN1:4 0.2277
7 GRN1:5 0.0824
8 GRN1:6 0.0890
*RES
2 GRN1 GRN1:6 0.0050
3 GRN1:1 inst_137:Q 0.0050
4 GRN1:2 GRN1:1 0.0185
5 GRN1:3 GRN1:2 0.0050
6 GRN1:3 GRN1:4 0.0238
7 GRN1:5 GRN1:4 0.0010
8 GRN1:5 GRN1:6 0.0090
*END

*D_NET net_176 1.3358
*CONN
*I inst_182:Z O
*I inst_183:A I
*CAP
1 inst_182:Z 0.3943
2 net_176:1 0.1955
3 net_176:2 0.1868
4 net_176:3 0.4889
5 inst_183:A 0.0703
*RES
2 inst_182:Z net_176:1 0.3298
3 net_176:1 net_176:2 0.4131
4 net_176:2 net_176:3 0.3310
5 net_176:3 inst_183:A 0.2621
*END

*D_NET net_159 0.9833
*CONN
*I inst_165:Z O
*I inst_166:A I
*CAP
1 inst_165:Z 0.1808
2 net_159:1 0.3990
3 inst_166:A 0.4035
*RES
2 inst_165:Z net_159:1 0.0219
3 net_159:1 inst_166:A 0.0830
*END

*D_NET net_61 0.1527
*CONN
*I inst_32:ZN O
*I inst_10:A2 I
*CAP
1 inst_32:ZN 0.0166
2 inst_10:A2 0.0166
3 net_61:1 0.0152
4 net_61:2 0.0315
5 net_61:3 0.0315
6 net_61:4 0.0206
7 net_61:5 0.0206
*RES
2 inst_10:A2 net_61:5 0.0050
3 net_61:1 inst_32:ZN 0.0050
4 net_61:2 net_61:1 0.0050
5 net_61:3 net_61:2 0.0027
6 net_61:4 net_61:3 0.0050
7 net_61:4 net_61:5 0.0010
*END

*D_NET net_137 0.1600
*CONN
*I inst_51:ZN O
*I inst_53:A2 I
*CAP
1 inst_51:ZN 0.0397
2 inst_53:A2 0.0143
3 net_137:1 0.0480
4 net_137:2 0.0176
5 net_137:3 0.0176
6 net_137:4 0.0227
*RES
2 inst_53:A2 net_137:4 0.0021
3 net_137:1 inst_51:ZN 0.0052
4 net_137:2 net_137:1 0.0050
5 net_137:2 net_137:3 0.0010
6 net_137:4 net_137:3 0.0050
*END

*D_NET net_132 0.1268
*CONN
*I inst_105:ZN O
*I inst_15:A1 I
*CAP
1 inst_105:ZN 0.0166
2 inst_15:A1 0.0166
3 net_132:1 0.0152
4 net_132:2 0.0316
5 net_132:3 0.0316
6 net_132:4 0.0152
*RES
2 inst_105:ZN net_132:4 0.0050
3 net_132:1 inst_15:A1 0.0050
4 net_132:2 net_132:1 0.0050
5 net_132:2 net_132:3 0.0020
6 net_132:4 net_132:3 0.0050
*END

*D_NET net_54 0.1348
*CONN
*I inst_2:ZN O
*I inst_15:A3 I
*CAP
1 inst_2:ZN 0.0166
2 inst_15:A3 0.0166
3 net_54:1 0.0269
4 net_54:2 0.0292
5 net_54:3 0.0239
6 net_54:4 0.0216
*RES
2 inst_15:A3 net_54:4 0.0050
3 net_54:1 inst_2:ZN 0.0050
4 net_54:2 net_54:1 0.0015
5 net_54:2 net_54:3 0.0010
6 net_54:4 net_54:3 0.0015
*END

*D_NET net_105 0.1388
*CONN
*I inst_19:ZN O
*I inst_132:D I
*CAP
1 inst_19:ZN 0.0166
2 inst_132:D 0.0143
3 net_105:1 0.0226
4 net_105:2 0.0426
5 net_105:3 0.0426
*RES
2 inst_19:ZN net_105:3 0.0050
3 inst_132:D net_105:1 0.0021
4 net_105:2 net_105:1 0.0050
5 net_105:3 net_105:2 0.0035
*END

*D_NET net_62 0.7709
*CONN
*I inst_101:ZN O
*I inst_63:A2 I
*I inst_42:A4 I
*I inst_66:A1 I
*CAP
1 inst_101:ZN 0.0166
2 inst_63:A2 0.0166
3 inst_42:A4 0.0332
4 inst_66:A1 0.0166
5 net_62:1 0.0152
6 net_62:2 0.0116
7 net_62:3 0.0731
8 net_62:4 0.1570
9 net_62:5 0.1570
10 net_62:6 0.0116
11 net_62:7 0.0116
12 net_62:8 0.0152
13 net_62:9 0.0152
14 net_62:10 0.0692
15 net_62:11 0.0152
16 net_62:12 0.0514
17 net_62:13 0.0476
18 net_62:14 0.0184
19 net_62:15 0.0184
*RES
2 inst_42:A4 net_62:15 0.0050
3 inst_42:A4 net_62:8 0.0050
4 net_62:1 inst_63:A2 0.0050
5 net_62:2 net_62:1 0.0050
6 net_62:2 net_62:3 0.0010
7 net_62:3 net_62:10 0.0052
8 net_62:4 net_62:3 0.0050
9 net_62:4 net_62:5 0.0042
10 net_62:6 net_62:5 0.0050
11 net_62:7 net_62:6 0.0010
12 net_62:8 net_62:7 0.0050
13 net_62:9 inst_66:A1 0.0050
14 net_62:10 net_62:9 0.0050
15 net_62:11 inst_101:ZN 0.0050
16 net_62:12 net_62:11 0.0050
17 net_62:12 net_62:13 0.0034
18 net_62:14 net_62:13 0.0050
19 net_62:15 net_62:14 0.0010
*END

*D_NET net_6 0.5504
*CONN
*I inst_125:QN O
*I inst_0:B I
*I inst_50:A2 I
*CAP
1 inst_0:B 0.0166
2 inst_50:A2 0.0166
3 inst_125:QN 0.0166
4 net_6:1 0.0152
5 net_6:2 0.0456
6 net_6:3 0.0456
7 net_6:4 0.0346
8 net_6:5 0.0299
9 net_6:6 0.1511
10 net_6:7 0.1511
11 net_6:8 0.0152
12 net_6:9 0.0123
*RES
2 net_6:1 inst_50:A2 0.0050
3 net_6:2 net_6:1 0.0050
4 net_6:3 net_6:2 0.0061
5 net_6:4 net_6:3 0.0050
6 net_6:4 net_6:9 0.0010
7 net_6:5 net_6:4 0.0030
8 net_6:5 net_6:6 0.0050
9 net_6:7 net_6:6 0.0102
10 net_6:7 net_6:8 0.0050
11 net_6:8 inst_0:B 0.0050
12 net_6:9 inst_125:QN 0.0050
*END

*D_NET net_129 0.4244
*CONN
*I inst_106:ZN O
*I inst_107:A I
*I inst_38:A2 I
*I inst_73:A1 I
*CAP
1 inst_106:ZN 0.0685
2 inst_107:A 0.0703
3 inst_38:A2 0.0166
4 inst_73:A1 0.0166
5 net_129:1 0.0431
6 net_129:2 0.0431
7 net_129:3 0.0717
8 net_129:4 0.0755
9 net_129:5 0.0189
*RES
2 inst_106:ZN inst_107:A 0.0083
3 inst_106:ZN net_129:5 0.0010
4 inst_107:A net_129:2 0.0050
5 net_129:1 inst_73:A1 0.0050
6 net_129:1 net_129:2 0.0030
7 net_129:3 inst_38:A2 0.0050
8 net_129:3 net_129:4 0.0095
9 net_129:5 net_129:4 0.0050
*END

*D_NET net_119 0.1612
*CONN
*I inst_53:ZN O
*I inst_54:A1 I
*CAP
1 inst_53:ZN 0.0166
2 inst_54:A1 0.0430
3 net_119:1 0.0513
4 net_119:2 0.0252
5 net_119:3 0.0252
*RES
2 inst_53:ZN net_119:3 0.0050
3 inst_54:A1 net_119:1 0.0062
4 net_119:2 net_119:1 0.0050
5 net_119:2 net_119:3 0.0025
*END

*D_NET net_98 0.1857
*CONN
*I inst_55:ZN O
*I inst_4:A I
*CAP
1 inst_55:ZN 0.0166
2 inst_4:A 0.0166
3 net_98:1 0.0152
4 net_98:2 0.0507
5 net_98:3 0.0507
6 net_98:4 0.0180
7 net_98:5 0.0180
*RES
2 inst_4:A net_98:5 0.0050
3 net_98:1 inst_55:ZN 0.0050
4 net_98:2 net_98:1 0.0050
5 net_98:3 net_98:2 0.0068
6 net_98:4 net_98:3 0.0050
7 net_98:4 net_98:5 0.0010
*END

*D_NET net_23 0.1065
*CONN
*I inst_117:ZN O
*I inst_61:A1 I
*CAP
1 inst_117:ZN 0.0166
2 inst_61:A1 0.0166
3 net_23:1 0.0152
4 net_23:2 0.0214
5 net_23:3 0.0214
6 net_23:4 0.0152
*RES
2 inst_117:ZN net_23:4 0.0050
3 net_23:1 inst_61:A1 0.0050
4 net_23:2 net_23:1 0.0050
5 net_23:3 net_23:2 0.0014
6 net_23:4 net_23:3 0.0050
*END

*D_NET net_117 0.1500
*CONN
*I inst_23:ZN O
*I inst_141:D I
*CAP
1 inst_23:ZN 0.0166
2 inst_141:D 0.0166
3 net_117:1 0.0565
4 net_117:2 0.0603
*RES
2 inst_141:D net_117:2 0.0050
3 net_117:1 inst_23:ZN 0.0050
4 net_117:1 net_117:2 0.0045
*END

*D_NET net_12 0.1351
*CONN
*I inst_131:QN O
*I inst_81:A I
*CAP
1 inst_81:A 0.0143
2 inst_131:QN 0.0166
3 net_12:1 0.0227
4 net_12:2 0.0408
5 net_12:3 0.0408
*RES
2 inst_81:A net_12:1 0.0021
3 inst_131:QN net_12:3 0.0050
4 net_12:2 net_12:1 0.0050
5 net_12:2 net_12:3 0.0030
*END

*D_NET net_151 1.0649
*CONN
*I inst_157:Z O
*I inst_143:CK I
*CAP
1 inst_157:Z 0.0279
2 net_151:1 0.0649
3 net_151:2 0.0510
4 net_151:3 0.1600
5 net_151:4 0.1748
6 net_151:5 0.4787
7 inst_143:CK 0.1076
*RES
2 inst_157:Z net_151:1 0.4606
3 net_151:1 net_151:2 0.3388
4 net_151:2 net_151:3 0.4657
5 net_151:3 net_151:4 0.3595
6 net_151:4 net_151:5 0.2471
7 net_151:5 inst_143:CK 0.0832
*END

*D_NET net_74 0.0415
*CONN
*I inst_7:ZN O
*I inst_75:A1 I
*CAP
1 inst_7:ZN 0.0010
2 inst_75:A1 0.0010
3 net_74:1 0.0198
4 net_74:2 0.0198
*RES
2 inst_7:ZN net_74:2 0.0050
3 net_74:1 inst_75:A1 0.0050
4 net_74:2 net_74:1 0.0014
*END

*D_NET net_53 0.3729
*CONN
*I inst_148:ZN O
*I inst_2:A I
*I inst_17:A1 I
*CAP
1 inst_148:ZN 0.0166
2 inst_2:A 0.0332
3 inst_17:A1 0.0166
4 net_53:1 0.0637
5 net_53:2 0.0637
6 net_53:3 0.0152
7 net_53:4 0.0743
8 net_53:5 0.0743
9 net_53:6 0.0152
*RES
2 inst_2:A net_53:6 0.0050
3 inst_2:A net_53:2 0.0050
4 net_53:1 inst_17:A1 0.0050
5 net_53:2 net_53:1 0.0040
6 net_53:3 inst_148:ZN 0.0050
7 net_53:4 net_53:3 0.0050
8 net_53:5 net_53:4 0.0068
9 net_53:6 net_53:5 0.0050
*END

*D_NET net_93 0.1908
*CONN
*I inst_121:ZN O
*I inst_48:A3 I
*CAP
1 inst_121:ZN 0.0143
2 inst_48:A3 0.0143
3 net_93:1 0.0227
4 net_93:2 0.0178
5 net_93:3 0.0178
6 net_93:4 0.0331
7 net_93:5 0.0331
8 net_93:6 0.0152
9 net_93:7 0.0226
*RES
2 inst_121:ZN net_93:7 0.0021
3 net_93:1 inst_48:A3 0.0021
4 net_93:2 net_93:1 0.0050
5 net_93:3 net_93:2 0.0010
6 net_93:4 net_93:3 0.0050
7 net_93:5 net_93:4 0.0027
8 net_93:6 net_93:5 0.0050
9 net_93:7 net_93:6 0.0050
*END

*D_NET net_210 0.8209
*CONN
*I inst_216:Z O
*I inst_217:A I
*CAP
1 inst_216:Z 0.3736
2 net_210:1 0.3644
3 inst_217:A 0.0829
*RES
2 inst_216:Z net_210:1 0.1977
3 net_210:1 inst_217:A 0.4694
*END

*D_NET net_205 2.0853
*CONN
*I inst_211:Z O
*I inst_212:A I
*CAP
1 inst_211:Z 0.3882
2 net_205:1 0.0413
3 net_205:2 0.4651
4 net_205:3 0.4065
5 net_205:4 0.3164
6 net_205:5 0.3513
7 inst_212:A 0.1165
*RES
2 inst_211:Z net_205:1 0.0986
3 net_205:1 net_205:2 0.2243
4 net_205:2 net_205:3 0.1286
5 net_205:3 net_205:4 0.4269
6 net_205:4 net_205:5 0.2482
7 net_205:5 inst_212:A 0.2195
*END

*D_NET net_168 1.7569
*CONN
*I inst_174:Z O
*I inst_175:A I
*CAP
1 inst_174:Z 0.4091
2 net_168:1 0.3587
3 net_168:2 0.1869
4 net_168:3 0.4974
5 inst_175:A 0.3047
*RES
2 inst_174:Z net_168:1 0.1200
3 net_168:1 net_168:2 0.4969
4 net_168:2 net_168:3 0.1210
5 net_168:3 inst_175:A 0.1733
*END

*D_NET net_135 0.0304
*CONN
*I inst_103:ZN O
*I inst_36:A2 I
*CAP
1 inst_103:ZN 0.0152
2 inst_36:A2 0.0152
*RES
2 inst_103:ZN inst_36:A2 0.0021
*END

*D_NET net_130 0.6467
*CONN
*I inst_54:ZN O
*I inst_106:A I
*I inst_37:A1 I
*I inst_24:A1 I
*CAP
1 inst_106:A 0.0072
2 inst_54:ZN 0.0166
3 inst_37:A1 0.0166
4 inst_24:A1 0.0166
5 net_130:1 0.0155
6 net_130:2 0.0231
7 net_130:3 0.0359
8 net_130:4 0.1542
9 net_130:5 0.2014
10 net_130:6 0.0176
11 net_130:7 0.0176
12 net_130:8 0.0204
13 net_130:9 0.0246
14 net_130:10 0.0246
15 net_130:11 0.0548
*RES
2 net_130:1 inst_106:A 0.0010
3 net_130:2 net_130:1 0.0050
4 net_130:3 net_130:2 0.0020
5 net_130:4 net_130:3 0.0050
6 net_130:4 net_130:5 0.0143
7 net_130:5 net_130:11 0.0047
8 net_130:5 net_130:6 0.0050
9 net_130:7 inst_37:A1 0.0050
10 net_130:7 net_130:6 0.0010
11 net_130:8 inst_24:A1 0.0050
12 net_130:8 net_130:3 0.0010
13 net_130:9 inst_54:ZN 0.0050
14 net_130:10 net_130:9 0.0015
15 net_130:11 net_130:10 0.0050
*END

*D_NET net_147 1.2055
*CONN
*I inst_153:Z O
*I inst_154:A I
*CAP
1 inst_153:Z 0.3629
2 net_147:1 0.3900
3 net_147:2 0.0557
4 net_147:3 0.1253
5 inst_154:A 0.2716
*RES
2 inst_153:Z net_147:1 0.3735
3 net_147:1 net_147:2 0.1079
4 net_147:2 net_147:3 0.3323
5 net_147:3 inst_154:A 0.2907
*END

*D_NET net_127 0.5459
*CONN
*I inst_126:QN O
*I inst_109:A I
*I inst_25:A2 I
*I inst_43:A2 I
*CAP
1 inst_109:A 0.0166
2 inst_25:A2 0.0166
3 inst_43:A2 0.0166
4 inst_126:QN 0.0166
5 net_127:1 0.0177
6 net_127:2 0.0177
7 net_127:3 0.0133
8 net_127:4 0.0724
9 net_127:5 0.0666
10 net_127:6 0.0164
11 net_127:7 0.0164
12 net_127:8 0.0224
13 net_127:9 0.0151
14 net_127:10 0.0151
15 net_127:11 0.0668
16 net_127:12 0.0668
17 net_127:13 0.0248
18 net_127:14 0.0271
19 net_127:15 0.0209
*RES
2 net_127:1 inst_109:A 0.0050
3 net_127:1 net_127:2 0.0010
4 net_127:3 net_127:2 0.0050
5 net_127:4 net_127:3 0.0010
6 net_127:5 net_127:4 0.0045
7 net_127:5 net_127:6 0.0050
8 net_127:7 inst_25:A2 0.0050
9 net_127:7 net_127:6 0.0010
10 net_127:8 inst_43:A2 0.0050
11 net_127:8 net_127:15 0.0015
12 net_127:8 net_127:9 0.0050
13 net_127:9 net_127:10 0.0010
14 net_127:10 net_127:11 0.0050
15 net_127:12 net_127:4 0.0050
16 net_127:12 net_127:11 0.0017
17 net_127:13 inst_126:QN 0.0050
18 net_127:14 net_127:13 0.0015
19 net_127:15 net_127:14 0.0010
*END

*D_NET net_14 0.1121
*CONN
*I inst_113:ZN O
*I inst_147:A2 I
*CAP
1 inst_113:ZN 0.0166
2 inst_147:A2 0.0166
3 net_14:1 0.0152
4 net_14:2 0.0242
5 net_14:3 0.0242
6 net_14:4 0.0152
*RES
2 inst_113:ZN net_14:4 0.0050
3 net_14:1 inst_147:A2 0.0050
4 net_14:2 net_14:1 0.0050
5 net_14:3 net_14:2 0.0014
6 net_14:4 net_14:3 0.0050
*END

*D_NET net_113 0.1787
*CONN
*I inst_22:ZN O
*I inst_144:D I
*CAP
1 inst_22:ZN 0.0267
2 inst_144:D 0.0166
3 net_113:1 0.0350
4 net_113:2 0.0175
5 net_113:3 0.0426
6 net_113:4 0.0403
*RES
2 inst_22:ZN net_113:1 0.0031
3 inst_144:D net_113:4 0.0050
4 net_113:2 net_113:1 0.0050
5 net_113:2 net_113:3 0.0010
6 net_113:4 net_113:3 0.0030
*END

*D_NET net_26 0.1658
*CONN
*I inst_122:ZN O
*I inst_29:A1 I
*I inst_148:A1 I
*CAP
1 inst_122:ZN 0.0242
2 inst_29:A1 0.0076
3 inst_148:A1 0.0072
4 net_26:1 0.0152
5 net_26:2 0.0405
6 net_26:3 0.0405
7 net_26:4 0.0152
8 net_26:5 0.0155
*RES
2 inst_122:ZN inst_29:A1 0.0010
3 net_26:1 inst_122:ZN 0.0050
4 net_26:2 net_26:1 0.0050
5 net_26:2 net_26:3 0.0020
6 net_26:4 net_26:3 0.0050
7 net_26:5 inst_148:A1 0.0010
8 net_26:5 net_26:4 0.0050
*END

*D_NET net_76 0.9491
*CONN
*I inst_62:ZN O
*I inst_33:A2 I
*I inst_16:A3 I
*I inst_17:A3 I
*CAP
1 inst_62:ZN 0.0381
2 inst_33:A2 0.0166
3 inst_16:A3 0.0215
4 inst_17:A3 0.0166
5 net_76:1 0.0161
6 net_76:2 0.0161
7 net_76:3 0.0994
8 net_76:4 0.1041
9 net_76:5 0.0123
10 net_76:6 0.0633
11 net_76:7 0.0633
12 net_76:8 0.1887
13 net_76:9 0.1887
14 net_76:10 0.0152
15 net_76:11 0.0426
16 net_76:12 0.0464
*RES
2 inst_16:A3 inst_62:ZN 0.0031
3 net_76:1 inst_33:A2 0.0050
4 net_76:2 net_76:1 0.0010
5 net_76:3 net_76:2 0.0050
6 net_76:4 net_76:3 0.0102
7 net_76:5 net_76:4 0.0010
8 net_76:5 net_76:6 0.0050
9 net_76:6 net_76:7 0.0019
10 net_76:7 net_76:8 0.0050
11 net_76:9 net_76:8 0.0110
12 net_76:9 net_76:10 0.0050
13 net_76:10 inst_17:A3 0.0050
14 net_76:11 inst_62:ZN 0.0050
15 net_76:11 net_76:12 0.0050
16 net_76:12 net_76:4 0.0050
*END

*D_NET blif_clk_net 1.3806
*CONN
*P blif_clk_net I
*I inst_150:A I
*CAP
1 blif_clk_net 0.2468
2 blif_clk_net:1 0.3652
3 blif_clk_net:2 0.1857
4 blif_clk_net:3 0.0562
5 blif_clk_net:4 0.0882
6 inst_150:A 0.4386
*RES
2 blif_clk_net blif_clk_net:1 0.2715
3 blif_clk_net:1 blif_clk_net:2 0.0199
4 blif_clk_net:2 blif_clk_net:3 0.4145
5 blif_clk_net:3 blif_clk_net:4 0.1459
6 blif_clk_net:4 inst_150:A 0.1130
*END

*D_NET net_101 0.1537
*CONN
*I inst_6:ZN O
*I inst_23:A3 I
*CAP
1 inst_6:ZN 0.0166
2 inst_23:A3 0.0166
3 net_101:1 0.0313
4 net_101:2 0.0336
5 net_101:3 0.0289
6 net_101:4 0.0266
*RES
2 inst_23:A3 net_101:4 0.0050
3 net_101:1 inst_6:ZN 0.0050
4 net_101:1 net_101:2 0.0020
5 net_101:3 net_101:2 0.0010
6 net_101:3 net_101:4 0.0015
*END

*D_NET net_32 0.5851
*CONN
*I inst_147:ZN O
*I inst_118:A I
*I inst_61:A2 I
*CAP
1 inst_147:ZN 0.0166
2 inst_118:A 0.0166
3 inst_61:A2 0.0166
4 net_32:1 0.0190
5 net_32:2 0.0181
6 net_32:3 0.0429
7 net_32:4 0.0429
8 net_32:5 0.0309
9 net_32:6 0.0271
10 net_32:7 0.0175
11 net_32:8 0.0175
12 net_32:9 0.0976
13 net_32:10 0.0976
14 net_32:11 0.0408
15 net_32:12 0.0408
16 net_32:13 0.0132
17 net_32:14 0.0132
18 net_32:15 0.0162
*RES
2 net_32:1 inst_61:A2 0.0050
3 net_32:1 net_32:15 0.0010
4 net_32:2 net_32:1 0.0010
5 net_32:2 net_32:3 0.0050
6 net_32:3 net_32:4 0.0027
7 net_32:4 net_32:5 0.0050
8 net_32:6 inst_118:A 0.0050
9 net_32:6 net_32:5 0.0025
10 net_32:7 inst_147:ZN 0.0050
11 net_32:7 net_32:8 0.0010
12 net_32:9 net_32:8 0.0050
13 net_32:9 net_32:10 0.0103
14 net_32:11 net_32:10 0.0050
15 net_32:12 net_32:11 0.0011
16 net_32:13 net_32:12 0.0050
17 net_32:13 net_32:14 0.0010
18 net_32:15 net_32:14 0.0050
*END

*D_NET net_187 0.5758
*CONN
*I inst_193:Z O
*I inst_194:A I
*CAP
1 inst_193:Z 0.1939
2 net_187:1 0.0212
3 net_187:2 0.1417
4 inst_194:A 0.2190
*RES
2 inst_193:Z net_187:1 0.4826
3 net_187:1 net_187:2 0.1138
4 net_187:2 inst_194:A 0.4033
*END

*D_NET net_111 0.6384
*CONN
*I inst_56:ZN O
*I inst_102:A I
*I inst_146:A1 I
*CAP
1 inst_56:ZN 0.0389
2 inst_102:A 0.0072
3 inst_146:A1 0.0166
4 net_111:1 0.0263
5 net_111:2 0.0167
6 net_111:3 0.0496
7 net_111:4 0.0496
8 net_111:5 0.0157
9 net_111:6 0.0157
10 net_111:7 0.0155
11 net_111:8 0.0472
12 net_111:9 0.0165
13 net_111:10 0.0165
14 net_111:11 0.1427
15 net_111:12 0.1427
16 net_111:13 0.0209
*RES
2 inst_102:A net_111:7 0.0010
3 net_111:1 inst_146:A1 0.0050
4 net_111:1 net_111:13 0.0010
5 net_111:2 net_111:1 0.0010
6 net_111:2 net_111:3 0.0050
7 net_111:4 net_111:3 0.0041
8 net_111:4 net_111:5 0.0050
9 net_111:5 net_111:6 0.0010
10 net_111:6 net_111:7 0.0050
11 net_111:8 inst_56:ZN 0.0052
12 net_111:9 net_111:8 0.0050
13 net_111:10 net_111:9 0.0010
14 net_111:11 net_111:10 0.0050
15 net_111:12 net_111:11 0.0122
16 net_111:13 net_111:12 0.0050
*END

*D_NET net_90 0.4929
*CONN
*I inst_35:ZN O
*I inst_40:A2 I
*I inst_149:A2 I
*I inst_19:A1 I
*CAP
1 inst_35:ZN 0.0145
2 inst_40:A2 0.0281
3 inst_149:A2 0.0166
4 inst_19:A1 0.0166
5 net_90:1 0.0364
6 net_90:2 0.0385
7 net_90:3 0.0385
8 net_90:4 0.0153
9 net_90:5 0.0159
10 net_90:6 0.0181
11 net_90:7 0.0181
12 net_90:8 0.0473
13 net_90:9 0.0473
14 net_90:10 0.0473
15 net_90:11 0.0258
16 net_90:12 0.0273
17 net_90:13 0.0412
*RES
2 inst_35:ZN net_90:4 0.0010
3 net_90:1 inst_40:A2 0.0031
4 net_90:2 net_90:1 0.0050
5 net_90:2 net_90:3 0.0025
6 net_90:4 net_90:3 0.0050
7 net_90:5 inst_35:ZN 0.0010
8 net_90:6 net_90:5 0.0050
9 net_90:7 net_90:6 0.0010
10 net_90:8 net_90:7 0.0050
11 net_90:9 net_90:8 0.0034
12 net_90:10 net_90:9 0.0050
13 net_90:11 net_90:10 0.0010
14 net_90:11 net_90:12 0.0015
15 net_90:12 inst_19:A1 0.0050
16 net_90:13 inst_149:A2 0.0050
17 net_90:13 net_90:10 0.0030
*END

*D_NET net_40 0.3993
*CONN
*I inst_85:ZN O
*I inst_49:A2 I
*I inst_2:B I
*CAP
1 inst_85:ZN 0.0166
2 inst_49:A2 0.0166
3 inst_2:B 0.0166
4 net_40:1 0.0332
5 net_40:2 0.0433
6 net_40:3 0.0192
7 net_40:4 0.0858
8 net_40:5 0.0858
9 net_40:6 0.0189
10 net_40:7 0.0189
11 net_40:8 0.0210
12 net_40:9 0.0233
*RES
2 net_40:1 inst_2:B 0.0050
3 net_40:1 net_40:2 0.0025
4 net_40:2 net_40:3 0.0010
5 net_40:3 net_40:4 0.0050
6 net_40:4 net_40:5 0.0102
7 net_40:5 net_40:6 0.0050
8 net_40:7 inst_49:A2 0.0050
9 net_40:7 net_40:6 0.0010
10 net_40:8 inst_85:ZN 0.0050
11 net_40:9 net_40:2 0.0010
12 net_40:9 net_40:8 0.0015
*END

*D_NET net_100 0.5753
*CONN
*I inst_24:ZN O
*I inst_121:A I
*I inst_41:A2 I
*I inst_6:A I
*I inst_47:A1 I
*CAP
1 inst_24:ZN 0.0166
2 inst_121:A 0.0166
3 inst_41:A2 0.0304
4 inst_6:A 0.0166
5 inst_47:A1 0.0166
6 net_100:1 0.0387
7 net_100:2 0.0180
8 net_100:3 0.0180
9 net_100:4 0.0227
10 net_100:5 0.0573
11 net_100:6 0.0694
12 net_100:7 0.0348
13 net_100:8 0.0176
14 net_100:9 0.0176
15 net_100:10 0.0169
16 net_100:11 0.0701
17 net_100:12 0.0645
18 net_100:13 0.0164
19 net_100:14 0.0164
*RES
2 inst_41:A2 net_100:1 0.0041
3 net_100:2 net_100:1 0.0050
4 net_100:2 net_100:3 0.0010
5 net_100:4 net_100:3 0.0050
6 net_100:4 net_100:5 0.0014
7 net_100:5 net_100:6 0.0068
8 net_100:5 net_100:11 0.0050
9 net_100:6 net_100:7 0.0027
10 net_100:7 net_100:8 0.0050
11 net_100:8 net_100:9 0.0010
12 net_100:9 inst_121:A 0.0050
13 net_100:10 inst_6:A 0.0050
14 net_100:11 net_100:10 0.0010
15 net_100:12 inst_47:A1 0.0050
16 net_100:12 net_100:11 0.0055
17 net_100:13 inst_24:ZN 0.0050
18 net_100:13 net_100:14 0.0010
19 net_100:14 net_100:6 0.0050
*END

*D_NET net_85 0.1424
*CONN
*I inst_69:ZN O
*I inst_74:A2 I
*CAP
1 inst_69:ZN 0.0166
2 inst_74:A2 0.0076
3 net_85:1 0.0511
4 net_85:2 0.0511
5 net_85:3 0.0159
*RES
2 net_85:1 inst_69:ZN 0.0050
3 net_85:1 net_85:2 0.0055
4 net_85:3 inst_74:A2 0.0010
5 net_85:3 net_85:2 0.0050
*END

*D_NET net_69 0.2754
*CONN
*I inst_33:ZN O
*I inst_126:D I
*CAP
1 inst_33:ZN 0.0166
2 inst_126:D 0.0143
3 net_69:1 0.0498
4 net_69:2 0.0521
5 net_69:3 0.0611
6 net_69:4 0.0588
7 net_69:5 0.0226
*RES
2 net_69:1 inst_33:ZN 0.0050
3 net_69:1 net_69:2 0.0045
4 net_69:2 net_69:3 0.0010
5 net_69:3 net_69:4 0.0045
6 net_69:5 inst_126:D 0.0021
7 net_69:5 net_69:4 0.0050
*END

*D_NET net_124 0.3163
*CONN
*I inst_129:QN O
*I inst_111:A I
*I inst_25:A1 I
*I inst_43:A3 I
*CAP
1 inst_111:A 0.0166
2 inst_25:A1 0.0166
3 inst_43:A3 0.0166
4 inst_129:QN 0.0166
5 net_124:1 0.0341
6 net_124:2 0.0341
7 net_124:3 0.0186
8 net_124:4 0.0315
9 net_124:5 0.0243
10 net_124:6 0.0213
11 net_124:7 0.0198
12 net_124:8 0.0266
13 net_124:9 0.0244
14 net_124:10 0.0152
*RES
2 inst_129:QN net_124:6 0.0050
3 net_124:1 inst_111:A 0.0050
4 net_124:1 net_124:2 0.0030
5 net_124:3 net_124:2 0.0050
6 net_124:4 net_124:3 0.0010
7 net_124:4 net_124:10 0.0050
8 net_124:5 net_124:4 0.0014
9 net_124:6 net_124:5 0.0050
10 net_124:7 net_124:6 0.0010
11 net_124:8 net_124:7 0.0010
12 net_124:9 inst_25:A1 0.0050
13 net_124:9 net_124:8 0.0015
14 net_124:10 inst_43:A3 0.0050
*END

*D_NET net_161 0.6715
*CONN
*I inst_167:Z O
*I inst_168:A I
*CAP
1 inst_167:Z 0.2540
2 net_161:1 0.2388
3 inst_168:A 0.1787
*RES
2 inst_167:Z net_161:1 0.3603
3 net_161:1 inst_168:A 0.0603
*END

*D_NET CLR 3.5827
*CONN
*P CLR I
*I inst_113:A I
*I inst_82:A I
*I inst_26:A2 I
*I inst_27:A2 I
*CAP
1 CLR 0.0031
2 inst_113:A 0.0166
3 inst_82:A 0.0166
4 inst_26:A2 0.0536
5 inst_27:A2 0.0166
6 CLR:1 0.0152
7 CLR:2 0.0252
8 CLR:3 0.0248
9 CLR:4 0.0328
10 CLR:5 0.0331
11 CLR:6 0.0872
12 CLR:7 0.0910
13 CLR:8 0.5204
14 CLR:9 0.0622
15 CLR:10 0.0412
16 CLR:11 0.0415
17 CLR:12 0.0164
18 CLR:13 0.0631
19 CLR:14 0.0619
20 CLR:15 0.0152
21 CLR:16 0.0726
22 CLR:17 0.0726
23 CLR:18 0.0619
24 CLR:19 0.0118
25 CLR:20 0.0163
26 CLR:21 0.0196
27 CLR:22 0.0196
28 CLR:23 0.8024
29 CLR:24 0.8024
30 CLR:25 0.4655
*RES
2 CLR CLR:19 0.0010
3 CLR:1 inst_113:A 0.0050
4 CLR:2 CLR:1 0.0050
5 CLR:2 CLR:3 0.0020
6 CLR:4 CLR:3 0.0010
7 CLR:4 CLR:5 0.0034
8 CLR:6 inst_27:A2 0.0050
9 CLR:6 CLR:5 0.0050
10 CLR:6 CLR:7 0.0095
11 CLR:8 CLR:7 0.0050
12 CLR:8 CLR:9 0.0068
13 CLR:9 CLR:10 0.0010
14 CLR:10 CLR:11 0.0027
15 CLR:11 CLR:12 0.0050
16 CLR:12 CLR:13 0.0010
17 CLR:13 inst_82:A 0.0050
18 CLR:13 CLR:18 0.0070
19 CLR:14 inst_26:A2 0.0072
20 CLR:15 CLR:14 0.0050
21 CLR:16 CLR:15 0.0050
22 CLR:17 CLR:16 0.0041
23 CLR:18 CLR:17 0.0050
24 CLR:20 CLR:19 0.0010
25 CLR:21 CLR:20 0.0050
26 CLR:21 CLR:22 0.0013
27 CLR:23 CLR:22 0.0050
28 CLR:24 CLR:23 0.0275
29 CLR:25 CLR:8 0.0408
30 CLR:25 CLR:24 0.0050
*END

*D_NET net_141 0.1437
*CONN
*I inst_4:ZN O
*I inst_76:A1 I
*CAP
1 inst_4:ZN 0.0166
2 inst_76:A1 0.0166
3 net_141:1 0.0175
4 net_141:2 0.0213
5 net_141:3 0.0282
6 net_141:4 0.0282
7 net_141:5 0.0152
*RES
2 inst_4:ZN net_141:5 0.0050
3 net_141:1 inst_76:A1 0.0050
4 net_141:2 net_141:1 0.0010
5 net_141:3 net_141:2 0.0050
6 net_141:3 net_141:4 0.0027
7 net_141:5 net_141:4 0.0050
*END

*D_NET net_160 0.5340
*CONN
*I inst_166:Z O
*I inst_140:CK I
*CAP
1 inst_166:Z 0.0848
2 net_160:1 0.0274
3 inst_140:CK 0.4218
*RES
2 inst_166:Z net_160:1 0.2061
3 net_160:1 inst_140:CK 0.2110
*END

*D_NET net_83 0.0767
*CONN
*I inst_36:ZN O
*I inst_19:A2 I
*CAP
1 inst_36:ZN 0.0078
2 inst_19:A2 0.0080
3 net_83:1 0.0225
4 net_83:2 0.0225
5 net_83:3 0.0158
*RES
2 inst_36:ZN net_83:3 0.0010
3 inst_19:A2 net_83:1 0.0010
4 net_83:2 net_83:1 0.0021
5 net_83:3 net_83:2 0.0010
*END

*D_NET net_115 0.8769
*CONN
*I inst_102:ZN O
*I inst_22:A1 I
*I inst_39:A2 I
*I inst_23:A1 I
*CAP
1 inst_102:ZN 0.0332
2 inst_22:A1 0.0166
3 inst_39:A2 0.0236
4 inst_23:A1 0.0166
5 net_115:1 0.0380
6 net_115:2 0.0380
7 net_115:3 0.0785
8 net_115:4 0.0785
9 net_115:5 0.0409
10 net_115:6 0.0409
11 net_115:7 0.0865
12 net_115:8 0.1042
13 net_115:9 0.0360
14 net_115:10 0.0152
15 net_115:11 0.1005
16 net_115:12 0.1005
17 net_115:13 0.0291
*RES
2 inst_102:ZN net_115:6 0.0050
3 net_115:1 inst_23:A1 0.0050
4 net_115:2 net_115:1 0.0030
5 net_115:3 net_115:2 0.0050
6 net_115:4 net_115:3 0.0081
7 net_115:5 net_115:4 0.0050
8 net_115:6 net_115:5 0.0055
9 net_115:7 inst_102:ZN 0.0050
10 net_115:8 inst_22:A1 0.0050
11 net_115:8 net_115:7 0.0085
12 net_115:9 inst_39:A2 0.0031
13 net_115:10 net_115:9 0.0050
14 net_115:11 net_115:10 0.0050
15 net_115:12 net_115:11 0.0075
16 net_115:13 net_115:8 0.0015
17 net_115:13 net_115:12 0.0050
*END

*D_NET RED1 1.2455
*CONN
*I inst_135:Q O
*P RED1 O
*CAP
1 RED1 0.0152
2 inst_135:Q 0.0152
3 RED1:1 0.0235
4 RED1:2 0.3018
5 RED1:3 0.3018
6 RED1:4 0.2864
7 RED1:5 0.2850
8 RED1:6 0.0077
9 RED1:7 0.0091
*RES
2 RED1 RED1:7 0.0050
3 inst_135:Q RED1:1 0.0021
4 RED1:2 RED1:1 0.0050
5 RED1:2 RED1:3 0.0230
6 RED1:4 RED1:3 0.0050
7 RED1:4 RED1:5 0.0190
8 RED1:5 RED1:6 0.0010
9 RED1:6 RED1:7 0.0010
*END

*D_NET net_4 0.1855
*CONN
*I inst_124:QN O
*I inst_77:A I
*CAP
1 inst_77:A 0.0072
2 inst_124:QN 0.0166
3 net_4:1 0.0411
4 net_4:2 0.0449
5 net_4:3 0.0225
6 net_4:4 0.0225
7 net_4:5 0.0152
8 net_4:6 0.0155
*RES
2 inst_77:A net_4:6 0.0010
3 net_4:1 inst_124:QN 0.0050
4 net_4:1 net_4:2 0.0030
5 net_4:3 net_4:2 0.0050
6 net_4:4 net_4:3 0.0014
7 net_4:5 net_4:4 0.0050
8 net_4:6 net_4:5 0.0050
*END

*D_NET net_95 0.7388
*CONN
*I inst_71:ZN O
*I inst_74:A1 I
*I inst_75:A2 I
*CAP
1 inst_71:ZN 0.0166
2 inst_74:A1 0.0166
3 inst_75:A2 0.0166
4 net_95:1 0.1292
5 net_95:2 0.1444
6 net_95:3 0.0266
7 net_95:4 0.0554
8 net_95:5 0.0554
9 net_95:6 0.0308
10 net_95:7 0.0308
11 net_95:8 0.0152
12 net_95:9 0.1006
13 net_95:10 0.1006
*RES
2 net_95:1 inst_75:A2 0.0050
3 net_95:1 net_95:2 0.0115
4 net_95:2 net_95:3 0.0025
5 net_95:3 net_95:4 0.0050
6 net_95:5 net_95:4 0.0047
7 net_95:5 net_95:6 0.0050
8 net_95:6 net_95:7 0.0025
9 net_95:7 inst_74:A1 0.0050
10 net_95:8 inst_71:ZN 0.0050
11 net_95:9 net_95:8 0.0050
12 net_95:10 net_95:2 0.0050
13 net_95:10 net_95:9 0.0102
*END

*D_NET net_17 0.3488
*CONN
*I inst_82:ZN O
*I inst_87:A I
*I inst_88:A I
*I inst_42:A3 I
*CAP
1 inst_82:ZN 0.0254
2 inst_87:A 0.0166
3 inst_88:A 0.0166
4 inst_42:A3 0.0166
5 net_17:1 0.0206
6 net_17:2 0.0206
7 net_17:3 0.0261
8 net_17:4 0.0159
9 net_17:5 0.0181
10 net_17:6 0.0181
11 net_17:7 0.0328
12 net_17:8 0.0580
13 net_17:9 0.0328
14 net_17:10 0.0152
15 net_17:11 0.0152
*RES
2 inst_82:ZN net_17:4 0.0010
3 net_17:1 inst_87:A 0.0050
4 net_17:1 net_17:2 0.0010
5 net_17:3 inst_82:ZN 0.0021
6 net_17:3 net_17:2 0.0050
7 net_17:5 net_17:4 0.0050
8 net_17:5 net_17:6 0.0010
9 net_17:7 net_17:6 0.0050
10 net_17:7 net_17:8 0.0034
11 net_17:8 net_17:9 0.0041
12 net_17:9 net_17:10 0.0050
13 net_17:10 inst_42:A3 0.0050
14 net_17:11 inst_88:A 0.0050
15 net_17:11 net_17:8 0.0050
*END

*D_NET net_173 1.8489
*CONN
*I inst_179:Z O
*I inst_131:CK I
*CAP
1 inst_179:Z 0.1254
2 net_173:1 0.4751
3 net_173:2 0.3195
4 net_173:3 0.4748
5 net_173:4 0.2505
6 inst_131:CK 0.2036
*RES
2 inst_179:Z net_173:1 0.3990
3 net_173:1 net_173:2 0.0185
4 net_173:2 net_173:3 0.3777
5 net_173:3 net_173:4 0.2437
6 net_173:4 inst_131:CK 0.3641
*END

*D_NET net_78 0.3289
*CONN
*I inst_17:ZN O
*I inst_127:D I
*CAP
1 inst_17:ZN 0.0166
2 inst_127:D 0.0143
3 net_78:1 0.0543
4 net_78:2 0.0543
5 net_78:3 0.0758
6 net_78:4 0.0758
7 net_78:5 0.0152
8 net_78:6 0.0226
*RES
2 inst_127:D net_78:6 0.0021
3 net_78:1 inst_17:ZN 0.0050
4 net_78:1 net_78:2 0.0045
5 net_78:3 net_78:2 0.0050
6 net_78:4 net_78:3 0.0075
7 net_78:5 net_78:4 0.0050
8 net_78:6 net_78:5 0.0050
*END

*D_NET net_27 0.2780
*CONN
*I inst_29:ZN O
*I inst_17:A2 I
*CAP
1 inst_29:ZN 0.0166
2 inst_17:A2 0.0166
3 net_27:1 0.0201
4 net_27:2 0.0201
5 net_27:3 0.0516
6 net_27:4 0.0516
7 net_27:5 0.0507
8 net_27:6 0.0507
*RES
2 inst_17:A2 net_27:6 0.0050
3 net_27:1 inst_29:ZN 0.0050
4 net_27:1 net_27:2 0.0015
5 net_27:3 net_27:2 0.0050
6 net_27:4 net_27:3 0.0034
7 net_27:5 net_27:4 0.0050
8 net_27:5 net_27:6 0.0030
*END

*D_NET net_164 0.8304
*CONN
*I inst_170:Z O
*I inst_133:CK I
*CAP
1 inst_170:Z 0.2452
2 net_164:1 0.2079
3 net_164:2 0.2449
4 net_164:3 0.0406
5 inst_133:CK 0.0917
*RES
2 inst_170:Z net_164:1 0.0078
3 net_164:1 net_164:2 0.0227
4 net_164:2 net_164:3 0.0264
5 net_164:3 inst_133:CK 0.0174
*END

*D_NET net_56 0.4071
*CONN
*I inst_119:ZN O
*I inst_13:A3 I
*I inst_38:A1 I
*CAP
1 inst_119:ZN 0.0159
2 inst_13:A3 0.0423
3 inst_38:A1 0.0166
4 net_56:1 0.0665
5 net_56:2 0.0695
6 net_56:3 0.0695
7 net_56:4 0.0272
8 net_56:5 0.0272
9 net_56:6 0.0363
10 net_56:7 0.0363
*RES
2 inst_119:ZN net_56:1 0.0021
3 net_56:1 inst_13:A3 0.0062
4 net_56:1 net_56:2 0.0050
5 net_56:2 net_56:3 0.0065
6 net_56:3 net_56:4 0.0050
7 net_56:5 net_56:4 0.0014
8 net_56:5 net_56:6 0.0050
9 net_56:6 net_56:7 0.0020
10 net_56:7 inst_38:A1 0.0050
*END

*D_NET net_87 0.5308
*CONN
*I inst_78:ZN O
*I inst_54:A2 I
*I inst_3:B I
*CAP
1 inst_78:ZN 0.0099
2 inst_54:A2 0.0166
3 inst_3:B 0.0166
4 net_87:1 0.0170
5 net_87:2 0.0170
6 net_87:3 0.0962
7 net_87:4 0.0962
8 net_87:5 0.0740
9 net_87:6 0.0283
10 net_87:7 0.0182
11 net_87:8 0.0169
12 net_87:9 0.0169
13 net_87:10 0.0269
14 net_87:11 0.0269
15 net_87:12 0.0532
*RES
2 inst_78:ZN net_87:7 0.0010
3 net_87:1 inst_3:B 0.0050
4 net_87:1 net_87:2 0.0010
5 net_87:3 net_87:2 0.0050
6 net_87:4 net_87:3 0.0081
7 net_87:5 net_87:4 0.0050
8 net_87:5 net_87:12 0.0065
9 net_87:6 inst_54:A2 0.0050
10 net_87:6 net_87:5 0.0020
11 net_87:8 net_87:7 0.0050
12 net_87:9 net_87:8 0.0010
13 net_87:10 net_87:9 0.0050
14 net_87:10 net_87:11 0.0027
15 net_87:12 net_87:11 0.0050
*END

*D_NET net_0 0.1539
*CONN
*I inst_142:QN O
*I inst_83:A I
*CAP
1 inst_83:A 0.0166
2 inst_142:QN 0.0072
3 net_0:1 0.0152
4 net_0:2 0.0421