*SPEF "IEEE 1481-1998"
*DESIGN "changes"
*DATE "Tue Dec 02 20:01:59 2014"
*VENDOR "TAU 2015 Contest"
*PROGRAM "Benchmark Parasitic Generator"
*VERSION "0.0"
*DESIGN_FLOW "NETLIST_TYPE_VERILOG"
*DIVIDER /
*DELIMITER :
*BUS_DELIMITER [ ]
*T_UNIT 1 PS
*C_UNIT 1 FF
*R_UNIT 1 KOHM
*L_UNIT 1 UH

*D_NET TAUNET_4 1.7439
*CONN
*P G3 I
*I TAUGATE_4:A I
*CAP
1 G3 0.2611
2 TAUNET_4:1 0.4098
3 TAUNET_4:2 0.5009
4 TAUNET_4:3 0.2843
5 TAUGATE_4:A 0.2878
*RES
2 G3 TAUNET_4:1 0.1659
3 TAUNET_4:1 TAUNET_4:2 0.2742
4 TAUNET_4:2 TAUNET_4:3 0.3494
5 TAUNET_4:3 TAUGATE_4:A 0.1485
*END

*D_NET G1 1.3760
*CONN
*I TAUGATE_3:Z O
*I inst_10:A I
*CAP
1 TAUGATE_3:Z 0.2110
2 G1:1 0.3070
3 G1:2 0.3583
4 G1:3 0.1395
5 G1:4 0.0646
6 G1:5 0.0794
7 inst_10:A 0.2161
*RES
2 TAUGATE_3:Z G1:1 0.1614
3 G1:1 G1:2 0.3312
4 G1:2 G1:3 0.3755
5 G1:3 G1:4 0.4644
6 G1:4 G1:5 0.4559
7 G1:5 inst_10:A 0.4050
*END

*D_NET TAUNET_2 0.4849
*CONN
*I inst_3:ZN O
*I TAUGATE_2:A I
*CAP
1 inst_3:ZN 0.1670
2 TAUNET_2:1 0.2440
3 TAUNET_2:2 0.0332
4 TAUGATE_2:A 0.0406
*RES
2 inst_3:ZN TAUNET_2:1 0.2732
3 TAUNET_2:1 TAUNET_2:2 0.0073
4 TAUNET_2:2 TAUGATE_2:A 0.1308
*END

*D_NET TAUNET_3 1.8161
*CONN
*P G1 I
*I TAUGATE_3:A I
*CAP
1 G1 0.2909
2 TAUNET_3:1 0.0740
3 TAUNET_3:2 0.4871
4 TAUNET_3:3 0.4951
5 TAUNET_3:4 0.4125
6 TAUGATE_3:A 0.0565
*RES
2 G1 TAUNET_3:1 0.1285
3 TAUNET_3:1 TAUNET_3:2 0.0292
4 TAUNET_3:2 TAUNET_3:3 0.2926
5 TAUNET_3:3 TAUNET_3:4 0.4507
6 TAUNET_3:4 TAUGATE_3:A 0.3356
*END

*D_NET G3 1.9602
*CONN
*I TAUGATE_4:Z O
*I inst_1:A2 I
*CAP
1 TAUGATE_4:Z 0.3845
2 G3:1 0.3056
3 G3:2 0.3464
4 G3:3 0.0305
5 G3:4 0.2383
6 G3:5 0.4020
7 inst_1:A2 0.2529
*RES
2 TAUGATE_4:Z G3:1 0.2665
3 G3:1 G3:2 0.4354
4 G3:2 G3:3 0.1977
5 G3:3 G3:4 0.0788
6 G3:4 G3:5 0.3276
7 G3:5 inst_1:A2 0.3833
*END

*D_NET TAUNET_1 0.8670
*CONN
*I TAUGATE_2:Z O
*I TAUGATE_1:A I
*CAP
1 TAUGATE_2:Z 0.0716
2 TAUNET_1:1 0.1922
3 TAUNET_1:2 0.2805
4 TAUNET_1:3 0.1322
5 TAUGATE_1:A 0.1905
*RES
2 TAUGATE_2:Z TAUNET_1:1 0.4017
3 TAUNET_1:1 TAUNET_1:2 0.4680
4 TAUNET_1:2 TAUNET_1:3 0.2976
5 TAUNET_1:3 TAUGATE_1:A 0.2331
*END

