*SPEF "IEEE 1481-1998"
*DESIGN "changes"
*DATE "Tue Dec 02 20:02:01 2014"
*VENDOR "TAU 2015 Contest"
*PROGRAM "Benchmark Parasitic Generator"
*VERSION "0.0"
*DESIGN_FLOW "NETLIST_TYPE_VERILOG"
*DIVIDER /
*DELIMITER :
*BUS_DELIMITER [ ]
*T_UNIT 1 PS
*C_UNIT 1 FF
*R_UNIT 1 KOHM
*L_UNIT 1 UH

*D_NET TAUNET_13 1.7439
*CONN
*I TAUGATE_93:Z O
*I TAUGATE_13:A I
*CAP
1 TAUGATE_93:Z 0.2611
2 TAUNET_13:1 0.4098
3 TAUNET_13:2 0.5009
4 TAUNET_13:3 0.2843
5 TAUGATE_13:A 0.2878
*RES
2 TAUGATE_93:Z TAUNET_13:1 0.1659
3 TAUNET_13:1 TAUNET_13:2 0.2742
4 TAUNET_13:2 TAUNET_13:3 0.3494
5 TAUNET_13:3 TAUGATE_13:A 0.1485
*END

*D_NET TAUNET_12 1.3760
*CONN
*I TAUGATE_76:Z O
*I TAUGATE_12:A I
*CAP
1 TAUGATE_76:Z 0.2110
2 TAUNET_12:1 0.3070
3 TAUNET_12:2 0.3583
4 TAUNET_12:3 0.1395
5 TAUNET_12:4 0.0646
6 TAUNET_12:5 0.0794
7 TAUGATE_12:A 0.2161
*RES
2 TAUGATE_76:Z TAUNET_12:1 0.1614
3 TAUNET_12:1 TAUNET_12:2 0.3312
4 TAUNET_12:2 TAUNET_12:3 0.3755
5 TAUNET_12:3 TAUNET_12:4 0.4644
6 TAUNET_12:4 TAUNET_12:5 0.4559
7 TAUNET_12:5 TAUGATE_12:A 0.4050
*END

*D_NET TAUNET_4 0.4849
*CONN
*I TAUGATE_67:Z O
*I TAUGATE_4:A I
*CAP
1 TAUGATE_67:Z 0.1670
2 TAUNET_4:1 0.2440
3 TAUNET_4:2 0.0332
4 TAUGATE_4:A 0.0406
*RES
2 TAUGATE_67:Z TAUNET_4:1 0.2732
3 TAUNET_4:1 TAUNET_4:2 0.0073
4 TAUNET_4:2 TAUGATE_4:A 0.1308
*END

*D_NET TAUNET_97 1.8161
*CONN
*I TAUGATE_26:Z O
*I TAUGATE_97:A I
*CAP
1 TAUGATE_26:Z 0.2909
2 TAUNET_97:1 0.0740
3 TAUNET_97:2 0.4871
4 TAUNET_97:3 0.4951
5 TAUNET_97:4 0.4125
6 TAUGATE_97:A 0.0565
*RES
2 TAUGATE_26:Z TAUNET_97:1 0.1285
3 TAUNET_97:1 TAUNET_97:2 0.0292
4 TAUNET_97:2 TAUNET_97:3 0.2926
5 TAUNET_97:3 TAUNET_97:4 0.4507
6 TAUNET_97:4 TAUGATE_97:A 0.3356
*END

*D_NET TAUNET_80 1.9602
*CONN
*I TAUGATE_1:Z O
*I TAUGATE_80:A I
*CAP
1 TAUGATE_1:Z 0.3845
2 TAUNET_80:1 0.3056
3 TAUNET_80:2 0.3464
4 TAUNET_80:3 0.0305
5 TAUNET_80:4 0.2383
6 TAUNET_80:5 0.4020
7 TAUGATE_80:A 0.2529
*RES
2 TAUGATE_1:Z TAUNET_80:1 0.2665
3 TAUNET_80:1 TAUNET_80:2 0.4354
4 TAUNET_80:2 TAUNET_80:3 0.1977
5 TAUNET_80:3 TAUNET_80:4 0.0788
6 TAUNET_80:4 TAUNET_80:5 0.3276
7 TAUNET_80:5 TAUGATE_80:A 0.3833
*END

*D_NET TAUNET_75 0.8670
*CONN
*I TAUGATE_8:Z O
*I TAUGATE_75:A I
*CAP
1 TAUGATE_8:Z 0.0716
2 TAUNET_75:1 0.1922
3 TAUNET_75:2 0.2805
4 TAUNET_75:3 0.1322
5 TAUGATE_75:A 0.1905
*RES
2 TAUGATE_8:Z TAUNET_75:1 0.4017
3 TAUNET_75:1 TAUNET_75:2 0.4680
4 TAUNET_75:2 TAUNET_75:3 0.2976
5 TAUNET_75:3 TAUGATE_75:A 0.2331
*END

*D_NET TAUNET_1 1.3358
*CONN
*I TAUGATE_61:Z O
*I TAUGATE_1:A I
*CAP
1 TAUGATE_61:Z 0.3943
2 TAUNET_1:1 0.1955
3 TAUNET_1:2 0.1868
4 TAUNET_1:3 0.4889
5 TAUGATE_1:A 0.0703
*RES
2 TAUGATE_61:Z TAUNET_1:1 0.3298
3 TAUNET_1:1 TAUNET_1:2 0.4131
4 TAUNET_1:2 TAUNET_1:3 0.3310
5 TAUNET_1:3 TAUGATE_1:A 0.2621
*END

*D_NET net_6 0.9833
*CONN
*I TAUGATE_99:Z O
*I inst_2:A1 I
*CAP
1 TAUGATE_99:Z 0.1808
2 net_6:1 0.3990
3 inst_2:A1 0.4035
*RES
2 TAUGATE_99:Z net_6:1 0.0219
3 net_6:1 inst_2:A1 0.0830
*END

*D_NET TAUNET_35 1.6212
*CONN
*I TAUGATE_86:Z O
*I TAUGATE_35:A I
*CAP
1 TAUGATE_86:Z 0.1250
2 TAUNET_35:1 0.4976
3 TAUNET_35:2 0.3591
4 TAUNET_35:3 0.2780
5 TAUNET_35:4 0.2022
6 TAUGATE_35:A 0.1593
*RES
2 TAUGATE_86:Z TAUNET_35:1 0.4382
3 TAUNET_35:1 TAUNET_35:2 0.3498
4 TAUNET_35:2 TAUNET_35:3 0.4055
5 TAUNET_35:3 TAUNET_35:4 0.4519
6 TAUNET_35:4 TAUGATE_35:A 0.4658
*END

*D_NET TAUNET_78 1.1222
*CONN
*I TAUGATE_40:Z O
*I TAUGATE_78:A I
*CAP
1 TAUGATE_40:Z 0.4019
2 TAUNET_78:1 0.2503
3 TAUGATE_78:A 0.4700
*RES
2 TAUGATE_40:Z TAUNET_78:1 0.3789
3 TAUNET_78:1 TAUGATE_78:A 0.3545
*END

*D_NET TAUNET_77 1.0398
*CONN
*I TAUGATE_37:Z O
*I TAUGATE_77:A I
*CAP
1 TAUGATE_37:Z 0.4316
2 TAUNET_77:1 0.4734
3 TAUNET_77:2 0.0376
4 TAUGATE_77:A 0.0972
*RES
2 TAUGATE_37:Z TAUNET_77:1 0.3594
3 TAUNET_77:1 TAUNET_77:2 0.0525
4 TAUNET_77:2 TAUGATE_77:A 0.3248
*END

*D_NET TAUNET_70 1.7532
*CONN
*P G1 I
*I TAUGATE_70:A I
*CAP
1 G1 0.1267
2 TAUNET_70:1 0.2434
3 TAUNET_70:2 0.3726
4 TAUNET_70:3 0.2980
5 TAUNET_70:4 0.2454
6 TAUGATE_70:A 0.4670
*RES
2 G1 TAUNET_70:1 0.1921
3 TAUNET_70:1 TAUNET_70:2 0.1376
4 TAUNET_70:2 TAUNET_70:3 0.4443
5 TAUNET_70:3 TAUNET_70:4 0.1288
6 TAUNET_70:4 TAUGATE_70:A 0.3022
*END

*D_NET TAUNET_90 1.8873
*CONN
*I inst_9:ZN O
*I TAUGATE_90:A I
*CAP
1 inst_9:ZN 0.0668
2 TAUNET_90:1 0.4131
3 TAUNET_90:2 0.4004
4 TAUNET_90:3 0.4814
5 TAUNET_90:4 0.1341
6 TAUGATE_90:A 0.3915
*RES
2 inst_9:ZN TAUNET_90:1 0.0282
3 TAUNET_90:1 TAUNET_90:2 0.3089
4 TAUNET_90:2 TAUNET_90:3 0.0253
5 TAUNET_90:3 TAUNET_90:4 0.3105
6 TAUNET_90:4 TAUGATE_90:A 0.1881
*END

*D_NET TAUNET_76 1.4805
*CONN
*I TAUGATE_3:Z O
*I TAUGATE_76:A I
*CAP
1 TAUGATE_3:Z 0.1592
2 TAUNET_76:1 0.2761
3 TAUNET_76:2 0.3643
4 TAUNET_76:3 0.2288
5 TAUNET_76:4 0.0666
6 TAUGATE_76:A 0.3854
*RES
2 TAUGATE_3:Z TAUNET_76:1 0.3580
3 TAUNET_76:1 TAUNET_76:2 0.3774
4 TAUNET_76:2 TAUNET_76:3 0.2731
5 TAUNET_76:3 TAUNET_76:4 0.1525
6 TAUNET_76:4 TAUGATE_76:A 0.0518
*END

*D_NET net_12 2.3442
*CONN
*I TAUGATE_54:Z O
*I inst_14:RN I
*I inst_15:RN I
*I inst_16:RN I
*CAP
1 TAUGATE_54:Z 0.2154
2 net_12:1 0.1648
3 net_12:2 0.1855
4 net_12:3 0.0112
5 net_12:4 0.3530
6 net_12:5 0.1128
7 inst_15:RN 0.2239
8 net_12:6 0.4381
9 net_12:7 0.3484
10 inst_14:RN 0.0801
11 net_12:8 0.0510
12 inst_16:RN 0.1600
*RES
2 TAUGATE_54:Z net_12:1 0.0917
3 net_12:1 net_12:2 0.4230
4 net_12:2 net_12:3 0.1494
5 net_12:3 net_12:4 0.3290
6 net_12:4 net_12:5 0.1620
7 net_12:5 inst_15:RN 0.0029
8 net_12:4 net_12:6 0.1392
9 net_12:6 net_12:7 0.1891
10 net_12:7 inst_14:RN 0.0464
11 net_12:7 net_12:8 0.1748
12 net_12:8 inst_16:RN 0.4787
*END

*D_NET TAUNET_46 1.6741
*CONN
*I inst_2:ZN O
*I TAUGATE_46:A I
*CAP
1 inst_2:ZN 0.4606
2 TAUNET_46:1 0.4657
3 TAUNET_46:2 0.3595
4 TAUNET_46:3 0.2471
5 TAUNET_46:4 0.0832
6 TAUGATE_46:A 0.0580
*RES
2 inst_2:ZN TAUNET_46:1 0.3736
3 TAUNET_46:1 TAUNET_46:2 0.0395
4 TAUNET_46:2 TAUNET_46:3 0.3644
5 TAUNET_46:3 TAUNET_46:4 0.0829
6 TAUNET_46:4 TAUGATE_46:A 0.1977
*END

*D_NET TAUNET_86 2.1119
*CONN
*I inst_16:QN O
*I TAUGATE_86:A I
*CAP
1 inst_16:QN 0.3877
2 TAUNET_86:1 0.4950
3 TAUNET_86:2 0.0413
4 TAUNET_86:3 0.4651
5 TAUNET_86:4 0.4065
6 TAUGATE_86:A 0.3164
*RES
2 inst_16:QN TAUNET_86:1 0.3513
3 TAUNET_86:1 TAUNET_86:2 0.1165
4 TAUNET_86:2 TAUNET_86:3 0.0986
5 TAUNET_86:3 TAUNET_86:4 0.2243
6 TAUNET_86:4 TAUGATE_86:A 0.1286
*END

*D_NET TAUNET_85 1.4306
*CONN
*I TAUGATE_18:Z O
*I TAUGATE_85:A I
*CAP
1 TAUGATE_18:Z 0.2482
2 TAUNET_85:1 0.1533
3 TAUNET_85:2 0.4091
4 TAUNET_85:3 0.2613
5 TAUGATE_85:A 0.3587
*RES
2 TAUGATE_18:Z TAUNET_85:1 0.1869
3 TAUNET_85:1 TAUNET_85:2 0.4974
4 TAUNET_85:2 TAUNET_85:3 0.3047
5 TAUNET_85:3 TAUGATE_85:A 0.1200
*END

*D_NET TAUNET_24 0.5270
*CONN
*I TAUGATE_94:Z O
*I TAUGATE_24:A I
*CAP
1 TAUGATE_94:Z 0.1210
2 TAUNET_24:1 0.1014
3 TAUNET_24:2 0.0283
4 TAUGATE_24:A 0.2763
*RES
2 TAUGATE_94:Z TAUNET_24:1 0.2945
3 TAUNET_24:1 TAUNET_24:2 0.3177
4 TAUNET_24:2 TAUGATE_24:A 0.2101
*END

*D_NET TAUNET_16 1.4286
*CONN
*I TAUGATE_58:Z O
*I TAUGATE_16:A I
*CAP
1 TAUGATE_58:Z 0.2046
2 TAUNET_16:1 0.1317
3 TAUNET_16:2 0.3617
4 TAUNET_16:3 0.0856
5 TAUNET_16:4 0.3629
6 TAUGATE_16:A 0.2821
*RES
2 TAUGATE_58:Z TAUNET_16:1 0.3900
3 TAUNET_16:1 TAUNET_16:2 0.0557
4 TAUNET_16:2 TAUNET_16:3 0.1253
5 TAUNET_16:3 TAUNET_16:4 0.2716
6 TAUNET_16:4 TAUGATE_16:A 0.3735
*END

*D_NET net_7 1.5454
*CONN
*I TAUGATE_56:Z O
*I inst_9:A I
*CAP
1 TAUGATE_56:Z 0.3323
2 net_7:1 0.0362
3 net_7:2 0.4966
4 net_7:3 0.4101
5 inst_9:A 0.2702
*RES
2 TAUGATE_56:Z net_7:1 0.2135
3 net_7:1 net_7:2 0.0419
4 net_7:2 net_7:3 0.2773
5 net_7:3 inst_9:A 0.0903
*END

*D_NET TAUNET_31 2.3457
*CONN
*I TAUGATE_44:Z O
*I TAUGATE_31:A I
*CAP
1 TAUGATE_44:Z 0.4602
2 TAUNET_31:1 0.2009
3 TAUNET_31:2 0.3114
4 TAUNET_31:3 0.3090
5 TAUNET_31:4 0.3972
6 TAUNET_31:5 0.4228
7 TAUGATE_31:A 0.2443
*RES
2 TAUGATE_44:Z TAUNET_31:1 0.2458
3 TAUNET_31:1 TAUNET_31:2 0.3734
4 TAUNET_31:2 TAUNET_31:3 0.1567
5 TAUNET_31:3 TAUNET_31:4 0.1247
6 TAUNET_31:4 TAUNET_31:5 0.2439
7 TAUNET_31:5 TAUGATE_31:A 0.2588
*END

*D_NET TAUNET_25 0.9945
*CONN
*I TAUGATE_91:Z O
*I TAUGATE_25:A I
*CAP
1 TAUGATE_91:Z 0.3528
2 TAUNET_25:1 0.4436
3 TAUGATE_25:A 0.1981
*RES
2 TAUGATE_91:Z TAUNET_25:1 0.3275
3 TAUNET_25:1 TAUGATE_25:A 0.0169
*END

*D_NET TAUNET_71 1.2825
*CONN
*I inst_0:ZN O
*I TAUGATE_71:A I
*CAP
1 inst_0:ZN 0.4684
2 TAUNET_71:1 0.0579
3 TAUNET_71:2 0.0423
4 TAUNET_71:3 0.2861
5 TAUGATE_71:A 0.4278
*RES
2 inst_0:ZN TAUNET_71:1 0.3875
3 TAUNET_71:1 TAUNET_71:2 0.4796
4 TAUNET_71:2 TAUNET_71:3 0.3740
5 TAUNET_71:3 TAUGATE_71:A 0.1554
*END

*D_NET TAUNET_27 2.4087
*CONN
*I TAUGATE_75:Z O
*I TAUGATE_27:A I
*CAP
1 TAUGATE_75:Z 0.4380
2 TAUNET_27:1 0.4990
3 TAUNET_27:2 0.2134
4 TAUNET_27:3 0.1115
5 TAUNET_27:4 0.4947
6 TAUNET_27:5 0.3666
7 TAUGATE_27:A 0.2854
*RES
2 TAUGATE_75:Z TAUNET_27:1 0.4464
3 TAUNET_27:1 TAUNET_27:2 0.2438
4 TAUNET_27:2 TAUNET_27:3 0.2969
5 TAUNET_27:3 TAUNET_27:4 0.3091
6 TAUNET_27:4 TAUNET_27:5 0.5006
7 TAUNET_27:5 TAUGATE_27:A 0.2264
*END

*D_NET TAUNET_91 1.1017
*CONN
*P G0 I
*I TAUGATE_91:A I
*CAP
1 G0 0.2044
2 TAUNET_91:1 0.3886
3 TAUNET_91:2 0.2618
4 TAUGATE_91:A 0.2468
*RES
2 G0 TAUNET_91:1 0.4002
3 TAUNET_91:1 TAUNET_91:2 0.3652
4 TAUNET_91:2 TAUGATE_91:A 0.1857
*END

*D_NET TAUNET_62 1.1556
*CONN
*I TAUGATE_4:Z O
*I TAUGATE_62:A I
*CAP
1 TAUGATE_4:Z 0.0882
2 TAUNET_62:1 0.2715
3 TAUNET_62:2 0.0199
4 TAUNET_62:3 0.4145
5 TAUNET_62:4 0.1459
6 TAUNET_62:5 0.1130
7 TAUGATE_62:A 0.1026
*RES
2 TAUGATE_4:Z TAUNET_62:1 0.1939
3 TAUNET_62:1 TAUNET_62:2 0.1095
4 TAUNET_62:2 TAUNET_62:3 0.0212
5 TAUNET_62:3 TAUNET_62:4 0.1417
6 TAUNET_62:4 TAUNET_62:5 0.2190
7 TAUNET_62:5 TAUGATE_62:A 0.4826
*END

*D_NET TAUNET_28 1.4876
*CONN
*I TAUGATE_70:Z O
*I TAUGATE_28:A I
*CAP
1 TAUGATE_70:Z 0.4033
2 TAUNET_28:1 0.2540
3 TAUNET_28:2 0.0526
4 TAUNET_28:3 0.2388
5 TAUNET_28:4 0.1787
6 TAUGATE_28:A 0.3603
*RES
2 TAUGATE_70:Z TAUNET_28:1 0.0603
3 TAUNET_28:1 TAUNET_28:2 0.0863
4 TAUNET_28:2 TAUNET_28:3 0.3102
5 TAUNET_28:3 TAUNET_28:4 0.1239
6 TAUNET_28:4 TAUGATE_28:A 0.2473
*END

*D_NET TAUNET_57 1.8437
*CONN
*I TAUGATE_19:Z O
*I TAUGATE_57:A I
*CAP
1 TAUGATE_19:Z 0.4935
2 TAUNET_57:1 0.3995
3 TAUNET_57:2 0.4441
4 TAUNET_57:3 0.4218
5 TAUGATE_57:A 0.0848
*RES
2 TAUGATE_19:Z TAUNET_57:1 0.0266
3 TAUNET_57:1 TAUNET_57:2 0.0274
4 TAUNET_57:2 TAUNET_57:3 0.4218
5 TAUNET_57:3 TAUGATE_57:A 0.2061
*END

*D_NET net_5 1.6754
*CONN
*I TAUGATE_88:Z O
*I inst_0:A2 I
*CAP
1 TAUGATE_88:Z 0.4583
2 net_5:1 0.0145
3 net_5:2 0.0725
4 net_5:3 0.4492
5 net_5:4 0.3124
6 inst_0:A2 0.3685
*RES
2 TAUGATE_88:Z net_5:1 0.4317
3 net_5:1 net_5:2 0.1801
4 net_5:2 net_5:3 0.2826
5 net_5:3 net_5:4 0.3420
6 net_5:4 inst_0:A2 0.0965
*END

*D_NET TAUNET_65 1.1961
*CONN
*I TAUGATE_30:Z O
*I TAUGATE_65:A I
*CAP
1 TAUGATE_30:Z 0.1304
2 TAUNET_65:1 0.4634
3 TAUNET_65:2 0.2869
4 TAUNET_65:3 0.1646
5 TAUNET_65:4 0.1182
6 TAUGATE_65:A 0.0327
*RES
2 TAUGATE_30:Z TAUNET_65:1 0.0608
3 TAUNET_65:1 TAUNET_65:2 0.3721
4 TAUNET_65:2 TAUNET_65:3 0.4648
5 TAUNET_65:3 TAUNET_65:4 0.2376
6 TAUNET_65:4 TAUGATE_65:A 0.1146
*END

*D_NET TAUNET_9 0.6447
*CONN
*I TAUGATE_85:Z O
*I TAUGATE_9:A I
*CAP
1 TAUGATE_85:Z 0.1439
2 TAUNET_9:1 0.2502
3 TAUGATE_9:A 0.2506
*RES
2 TAUGATE_85:Z TAUNET_9:1 0.4486
3 TAUNET_9:1 TAUGATE_9:A 0.0641
*END

*D_NET reset_net 0.3299
*CONN
*I TAUGATE_84:Z O
*I inst_13:A I
*CAP
1 TAUGATE_84:Z 0.0079
2 reset_net:1 0.2219
3 inst_13:A 0.1001
*RES
2 TAUGATE_84:Z reset_net:1 0.2747
3 reset_net:1 inst_13:A 0.1704
*END

*D_NET net_14 0.1666
*CONN
*I TAUGATE_78:Z O
*I inst_1:A1 I
*CAP
1 TAUGATE_78:Z 0.0121
2 net_14:1 0.0267
3 inst_1:A1 0.1278
*RES
2 TAUGATE_78:Z net_14:1 0.1079
3 net_14:1 inst_1:A1 0.3621
*END

*D_NET TAUNET_37 2.0149
*CONN
*I TAUGATE_45:Z O
*I TAUGATE_37:A I
*CAP
1 TAUGATE_45:Z 0.3490
2 TAUNET_37:1 0.3195
3 TAUNET_37:2 0.4748
4 TAUNET_37:3 0.2505
5 TAUNET_37:4 0.2036
6 TAUNET_37:5 0.3990
7 TAUGATE_37:A 0.0185
*RES
2 TAUGATE_45:Z TAUNET_37:1 0.3777
3 TAUNET_37:1 TAUNET_37:2 0.2437
4 TAUNET_37:2 TAUNET_37:3 0.3641
5 TAUNET_37:3 TAUNET_37:4 0.1411
6 TAUNET_37:4 TAUNET_37:5 0.2452
7 TAUNET_37:5 TAUGATE_37:A 0.2723
*END

*D_NET TAUNET_32 0.3445
*CONN
*I TAUGATE_55:Z O
*I TAUGATE_32:A I
*CAP
1 TAUGATE_55:Z 0.2449
2 TAUNET_32:1 0.0917
3 TAUGATE_32:A 0.0078
*RES
2 TAUGATE_55:Z TAUNET_32:1 0.0227
3 TAUNET_32:1 TAUGATE_32:A 0.0264
*END

*D_NET TAUNET_38 0.9773
*CONN
*I TAUGATE_95:Z O
*I TAUGATE_38:A I
*CAP
1 TAUGATE_95:Z 0.1906
2 TAUNET_38:1 0.0937
3 TAUNET_38:2 0.2944
4 TAUGATE_38:A 0.3987
*RES
2 TAUGATE_95:Z TAUNET_38:1 0.0209
3 TAUNET_38:1 TAUNET_38:2 0.1182
4 TAUNET_38:2 TAUGATE_38:A 0.1067
*END

*D_NET net_13 2.0282
*CONN
*I TAUGATE_73:Z O
*I inst_16:D I
*CAP
1 TAUGATE_73:Z 0.3672
2 net_13:1 0.1157
3 net_13:2 0.1901
4 net_13:3 0.2138
5 net_13:4 0.5008
6 net_13:5 0.2979
7 inst_16:D 0.3428
*RES
2 TAUGATE_73:Z net_13:1 0.2325
3 net_13:1 net_13:2 0.2733
4 net_13:2 net_13:3 0.1266
5 net_13:3 net_13:4 0.3814
6 net_13:4 net_13:5 0.1363
7 net_13:5 inst_16:D 0.3277
*END

*D_NET TAUNET_40 1.7680
*CONN
*I TAUGATE_80:Z O
*I TAUGATE_40:A I
*CAP
1 TAUGATE_80:Z 0.4503
2 TAUNET_40:1 0.1603
3 TAUNET_40:2 0.4423
4 TAUNET_40:3 0.1159
5 TAUNET_40:4 0.4527
6 TAUGATE_40:A 0.1465
*RES
2 TAUGATE_80:Z TAUNET_40:1 0.1463
3 TAUNET_40:1 TAUNET_40:2 0.4621
4 TAUNET_40:2 TAUNET_40:3 0.4065
5 TAUNET_40:3 TAUNET_40:4 0.0227
6 TAUNET_40:4 TAUGATE_40:A 0.2236
*END

*D_NET TAUNET_20 1.0395
*CONN
*I TAUGATE_62:Z O
*I TAUGATE_20:A I
*CAP
1 TAUGATE_62:Z 0.0715
2 TAUNET_20:1 0.1861
3 TAUNET_20:2 0.4367
4 TAUGATE_20:A 0.3452
*RES
2 TAUGATE_62:Z TAUNET_20:1 0.0313
3 TAUNET_20:1 TAUNET_20:2 0.1217
4 TAUNET_20:2 TAUGATE_20:A 0.0111
*END

*D_NET TAUNET_14 1.2561
*CONN
*I TAUGATE_98:Z O
*I TAUGATE_14:A I
*CAP
1 TAUGATE_98:Z 0.0613
2 TAUNET_14:1 0.4407
3 TAUNET_14:2 0.4978
4 TAUGATE_14:A 0.2563
*RES
2 TAUGATE_98:Z TAUNET_14:1 0.2595
3 TAUNET_14:1 TAUNET_14:2 0.2603
4 TAUNET_14:2 TAUGATE_14:A 0.2874
*END

*D_NET net_11 1.0267
*CONN
*I TAUGATE_89:Z O
*I inst_0:A1 I
*CAP
1 TAUGATE_89:Z 0.2768
2 net_11:1 0.2053
3 net_11:2 0.2140
4 inst_0:A1 0.3306
*RES
2 TAUGATE_89:Z net_11:1 0.1569
3 net_11:1 net_11:2 0.2580
4 net_11:2 inst_0:A1 0.2138
*END

*D_NET TAUNET_73 2.1838
*CONN
*I TAUGATE_16:Z O
*I TAUGATE_73:A I
*CAP
1 TAUGATE_16:Z 0.3806
2 TAUNET_73:1 0.4608
3 TAUNET_73:2 0.4692
4 TAUNET_73:3 0.4766
5 TAUNET_73:4 0.0589
6 TAUNET_73:5 0.0962
7 TAUGATE_73:A 0.2415
*RES
2 TAUGATE_16:Z TAUNET_73:1 0.1750
3 TAUNET_73:1 TAUNET_73:2 0.4103
4 TAUNET_73:2 TAUNET_73:3 0.0845
5 TAUNET_73:3 TAUNET_73:4 0.1888
6 TAUNET_73:4 TAUNET_73:5 0.1436
7 TAUNET_73:5 TAUGATE_73:A 0.1762
*END

*D_NET TAUNET_60 0.3366
*CONN
*I inst_3:ZN O
*I TAUGATE_60:A I
*CAP
1 inst_3:ZN 0.0806
2 TAUNET_60:1 0.2069
3 TAUGATE_60:A 0.0491
*RES
2 inst_3:ZN TAUNET_60:1 0.4137
3 TAUNET_60:1 TAUGATE_60:A 0.3046
*END

*D_NET TAUNET_66 1.0479
*CONN
*I TAUGATE_2:Z O
*I TAUGATE_66:A I
*CAP
1 TAUGATE_2:Z 0.2640
2 TAUNET_66:1 0.4110
3 TAUNET_66:2 0.0191
4 TAUGATE_66:A 0.3538
*RES
2 TAUGATE_2:Z TAUNET_66:1 0.4300
3 TAUNET_66:1 TAUNET_66:2 0.3629
4 TAUNET_66:2 TAUGATE_66:A 0.0787
*END

*D_NET TAUNET_96 2.0675
*CONN
*I TAUGATE_35:Z O
*I TAUGATE_96:A I
*CAP
1 TAUGATE_35:Z 0.2971
2 TAUNET_96:1 0.5010
3 TAUNET_96:2 0.3538
4 TAUNET_96:3 0.4649
5 TAUNET_96:4 0.0482
6 TAUNET_96:5 0.1062
7 TAUGATE_96:A 0.2963
*RES
2 TAUGATE_35:Z TAUNET_96:1 0.4911
3 TAUNET_96:1 TAUNET_96:2 0.2002
4 TAUNET_96:2 TAUNET_96:3 0.2573
5 TAUNET_96:3 TAUNET_96:4 0.3761
6 TAUNET_96:4 TAUNET_96:5 0.0616
7 TAUNET_96:5 TAUGATE_96:A 0.4298
*END

*D_NET TAUNET_82 0.5116
*CONN
*I TAUGATE_33:Z O
*I TAUGATE_82:A I
*CAP
1 TAUGATE_33:Z 0.2634
2 TAUNET_82:1 0.0745
3 TAUGATE_82:A 0.1738
*RES
2 TAUGATE_33:Z TAUNET_82:1 0.4336
3 TAUNET_82:1 TAUGATE_82:A 0.4556
*END

*D_NET TAUNET_49 1.0764
*CONN
*P G2 I
*I TAUGATE_49:A I
*CAP
1 G2 0.0036
2 TAUNET_49:1 0.2737
3 TAUNET_49:2 0.3095
4 TAUGATE_49:A 0.4895
*RES
2 G2 TAUNET_49:1 0.4033
3 TAUNET_49:1 TAUNET_49:2 0.2734
4 TAUNET_49:2 TAUGATE_49:A 0.3461
*END

*D_NET TAUNET_93 1.3424
*CONN
*I TAUGATE_5:Z O
*I TAUGATE_93:A I
*CAP
1 TAUGATE_5:Z 0.0418
2 TAUNET_93:1 0.3815
3 TAUNET_93:2 0.1458
4 TAUNET_93:3 0.4915
5 TAUNET_93:4 0.0683
6 TAUGATE_93:A 0.2135
*RES
2 TAUGATE_5:Z TAUNET_93:1 0.4484
3 TAUNET_93:1 TAUNET_93:2 0.1379
4 TAUNET_93:2 TAUNET_93:3 0.1139
5 TAUNET_93:3 TAUNET_93:4 0.0489
6 TAUNET_93:4 TAUGATE_93:A 0.0861
*END

*D_NET TAUNET_87 1.2401
*CONN
*I inst_1:ZN O
*I TAUGATE_87:A I
*CAP
1 inst_1:ZN 0.4806
2 TAUNET_87:1 0.1114
3 TAUNET_87:2 0.0198
4 TAUNET_87:3 0.2366
5 TAUNET_87:4 0.1100
6 TAUGATE_87:A 0.2818
*RES
2 inst_1:ZN TAUNET_87:1 0.3290
3 TAUNET_87:1 TAUNET_87:2 0.1592
4 TAUNET_87:2 TAUNET_87:3 0.4236
5 TAUNET_87:3 TAUNET_87:4 0.3328
6 TAUNET_87:4 TAUGATE_87:A 0.1906
*END

*D_NET TAUNET_74 1.5747
*CONN
*I inst_12:ZN O
*I TAUGATE_74:A I
*CAP
1 inst_12:ZN 0.4347
2 TAUNET_74:1 0.1394
3 TAUNET_74:2 0.0096
4 TAUNET_74:3 0.4963
5 TAUNET_74:4 0.2377
6 TAUGATE_74:A 0.2571
*RES
2 inst_12:ZN TAUNET_74:1 0.3610
3 TAUNET_74:1 TAUNET_74:2 0.0042
4 TAUNET_74:2 TAUNET_74:3 0.2690
5 TAUNET_74:3 TAUNET_74:4 0.3841
6 TAUNET_74:4 TAUGATE_74:A 0.3400
*END

*D_NET TAUNET_50 1.2277
*CONN
*I TAUGATE_31:Z O
*I TAUGATE_50:A I
*CAP
1 TAUGATE_31:Z 0.3112
2 TAUNET_50:1 0.4134
3 TAUNET_50:2 0.0741
4 TAUGATE_50:A 0.4290
*RES
2 TAUGATE_31:Z TAUNET_50:1 0.4891
3 TAUNET_50:1 TAUNET_50:2 0.0621
4 TAUNET_50:2 TAUGATE_50:A 0.2122
*END

*D_NET TAUNET_23 0.7629
*CONN
*I TAUGATE_90:Z O
*I TAUGATE_23:A I
*CAP
1 TAUGATE_90:Z 0.1253
2 TAUNET_23:1 0.2343
3 TAUNET_23:2 0.1106
4 TAUNET_23:3 0.0283
5 TAUGATE_23:A 0.2644
*RES
2 TAUGATE_90:Z TAUNET_23:1 0.3395
3 TAUNET_23:1 TAUNET_23:2 0.4160
4 TAUNET_23:2 TAUNET_23:3 0.1311
5 TAUNET_23:3 TAUGATE_23:A 0.1702
*END

*D_NET TAUNET_72 0.8144
*CONN
*I TAUGATE_25:Z O
*I TAUGATE_72:A I
*CAP
1 TAUGATE_25:Z 0.0383
2 TAUNET_72:1 0.2177
3 TAUNET_72:2 0.0520
4 TAUNET_72:3 0.1787
5 TAUGATE_72:A 0.3277
*RES
2 TAUGATE_25:Z TAUNET_72:1 0.2308
3 TAUNET_72:1 TAUNET_72:2 0.1825
4 TAUNET_72:2 TAUNET_72:3 0.4154
5 TAUNET_72:3 TAUGATE_72:A 0.4205
*END

*D_NET TAUNET_39 0.9305
*CONN
*I TAUGATE_64:Z O
*I TAUGATE_39:A I
*CAP
1 TAUGATE_64:Z 0.3303
2 TAUNET_39:1 0.3450
3 TAUGATE_39:A 0.2552
*RES
2 TAUGATE_64:Z TAUNET_39:1 0.2397
3 TAUNET_39:1 TAUGATE_39:A 0.3943
*END

*D_NET net_4 1.1705
*CONN
*I TAUGATE_50:Z O
*I inst_7:A1 I
*CAP
1 TAUGATE_50:Z 0.3586
2 net_4:1 0.2132
3 net_4:2 0.3448
4 inst_7:A1 0.2539
*RES
2 TAUGATE_50:Z net_4:1 0.0169
3 net_4:1 net_4:2 0.2910
4 net_4:2 inst_7:A1 0.3418
*END

*D_NET G1 1.0972
*CONN
*I TAUGATE_51:Z O
*I inst_10:A I
*CAP
1 TAUGATE_51:Z 0.2232
2 G1:1 0.3825
3 inst_10:A 0.4916
*RES
2 TAUGATE_51:Z G1:1 0.0258
3 G1:1 inst_10:A 0.0722
*END

*D_NET TAUNET_51 0.1761
*CONN
*I TAUGATE_12:Z O
*I TAUGATE_51:A I
*CAP
1 TAUGATE_12:Z 0.0274
2 TAUNET_51:1 0.0758
3 TAUGATE_51:A 0.0730
*RES
2 TAUGATE_12:Z TAUNET_51:1 0.2996
3 TAUNET_51:1 TAUGATE_51:A 0.1500
*END

*D_NET net_15 1.1459
*CONN
*I TAUGATE_102:Z O
*I inst_6:A2 I
*CAP
1 TAUGATE_102:Z 0.0605
2 net_15:1 0.4347
3 net_15:2 0.2976
4 inst_6:A2 0.3531
*RES
2 TAUGATE_102:Z net_15:1 0.0316
3 net_15:1 net_15:2 0.1823
4 net_15:2 inst_6:A2 0.0755
*END

*D_NET TAUNET_92 1.1637
*CONN
*I TAUGATE_34:Z O
*I TAUGATE_92:A I
*CAP
1 TAUGATE_34:Z 0.3515
2 TAUNET_92:1 0.4269
3 TAUNET_92:2 0.0493
4 TAUNET_92:3 0.0341
5 TAUGATE_92:A 0.3020
*RES
2 TAUGATE_34:Z TAUNET_92:1 0.3389
3 TAUNET_92:1 TAUNET_92:2 0.4000
4 TAUNET_92:2 TAUNET_92:3 0.0188
5 TAUNET_92:3 TAUGATE_92:A 0.4709
*END

*D_NET TAUNET_83 0.8262
*CONN
*I TAUGATE_36:Z O
*I TAUGATE_83:A I
*CAP
1 TAUGATE_36:Z 0.0122
2 TAUNET_83:1 0.0936
3 TAUNET_83:2 0.3051
4 TAUNET_83:3 0.1197
5 TAUGATE_83:A 0.2956
*RES
2 TAUGATE_36:Z TAUNET_83:1 0.2210
3 TAUNET_83:1 TAUNET_83:2 0.0970
4 TAUNET_83:2 TAUNET_83:3 0.2798
5 TAUNET_83:3 TAUGATE_83:A 0.3150
*END

*D_NET TAUNET_100 1.2664
*CONN
*I TAUGATE_28:Z O
*I TAUGATE_100:A I
*CAP
1 TAUGATE_28:Z 0.2108
2 TAUNET_100:1 0.0161
3 TAUNET_100:2 0.2047
4 TAUNET_100:3 0.3729
5 TAUNET_100:4 0.0610
6 TAUGATE_100:A 0.4010
*RES
2 TAUGATE_28:Z TAUNET_100:1 0.2910
3 TAUNET_100:1 TAUNET_100:2 0.3768
4 TAUNET_100:2 TAUNET_100:3 0.3083
5 TAUNET_100:3 TAUNET_100:4 0.1250
6 TAUNET_100:4 TAUGATE_100:A 0.3526
*END

*D_NET TAUNET_19 1.6292
*CONN
*I TAUGATE_81:Z O
*I TAUGATE_19:A I
*CAP
1 TAUGATE_81:Z 0.3144
2 TAUNET_19:1 0.0820
3 TAUNET_19:2 0.2174
4 TAUNET_19:3 0.3638
5 TAUNET_19:4 0.4097
6 TAUGATE_19:A 0.2418
*RES
2 TAUGATE_81:Z TAUNET_19:1 0.4080
3 TAUNET_19:1 TAUNET_19:2 0.3118
4 TAUNET_19:2 TAUNET_19:3 0.4981
5 TAUNET_19:3 TAUNET_19:4 0.3134
6 TAUNET_19:4 TAUGATE_19:A 0.4059
*END

*D_NET TAUNET_34 0.9494
*CONN
*I TAUGATE_49:Z O
*I TAUGATE_34:A I
*CAP
1 TAUGATE_49:Z 0.0910
2 TAUNET_34:1 0.3093
3 TAUNET_34:2 0.3342
4 TAUGATE_34:A 0.2150
*RES
2 TAUGATE_49:Z TAUNET_34:1 0.0109
3 TAUNET_34:1 TAUNET_34:2 0.1830
4 TAUNET_34:2 TAUGATE_34:A 0.2298
*END

*D_NET G3 0.1587
*CONN
*I TAUGATE_79:Z O
*I inst_1:A2 I
*CAP
1 TAUGATE_79:Z 0.0044
2 G3:1 0.0476
3 G3:2 0.0521
4 inst_1:A2 0.0546
*RES
2 TAUGATE_79:Z G3:1 0.0043
3 G3:1 G3:2 0.2737
4 G3:2 inst_1:A2 0.4724
*END

*D_NET TAUNET_54 1.0994
*CONN
*I TAUGATE_15:Z O
*I TAUGATE_54:A I
*CAP
1 TAUGATE_15:Z 0.2426
2 TAUNET_54:1 0.2784
3 TAUNET_54:2 0.2008
4 TAUGATE_54:A 0.3776
*RES
2 TAUGATE_15:Z TAUNET_54:1 0.2937
3 TAUNET_54:1 TAUNET_54:2 0.0093
4 TAUNET_54:2 TAUGATE_54:A 0.2822
*END

*D_NET TAUNET_44 1.0927
*CONN
*I TAUGATE_7:Z O
*I TAUGATE_44:A I
*CAP
1 TAUGATE_7:Z 0.0309
2 TAUNET_44:1 0.3809
3 TAUNET_44:2 0.3567
4 TAUGATE_44:A 0.3242
*RES
2 TAUGATE_7:Z TAUNET_44:1 0.2336
3 TAUNET_44:1 TAUNET_44:2 0.3863
4 TAUNET_44:2 TAUGATE_44:A 0.2365
*END

*D_NET TAUNET_67 1.1858
*CONN
*I TAUGATE_38:Z O
*I TAUGATE_67:A I
*CAP
1 TAUGATE_38:Z 0.3572
2 TAUNET_67:1 0.2185
3 TAUNET_67:2 0.2266
4 TAUNET_67:3 0.2538
5 TAUGATE_67:A 0.1297
*RES
2 TAUGATE_38:Z TAUNET_67:1 0.4791
3 TAUNET_67:1 TAUNET_67:2 0.2417
4 TAUNET_67:2 TAUNET_67:3 0.2444
5 TAUNET_67:3 TAUGATE_67:A 0.4262
*END

*D_NET G2 1.0967
*CONN
*I TAUGATE_92:Z O
*I inst_5:A1 I
*CAP
1 TAUGATE_92:Z 0.3015
2 G2:1 0.3035
3 G2:2 0.4053
4 inst_5:A1 0.0863
*RES
2 TAUGATE_92:Z G2:1 0.2362
3 G2:1 G2:2 0.1365
4 G2:2 inst_5:A1 0.0277
*END

*D_NET net_3 0.8486
*CONN
*I TAUGATE_69:Z O
*I inst_7:A2 I
*CAP
1 TAUGATE_69:Z 0.2912
2 net_3:1 0.3711
3 net_3:2 0.0512
4 inst_7:A2 0.1351
*RES
2 TAUGATE_69:Z net_3:1 0.0984
3 net_3:1 net_3:2 0.0368
4 net_3:2 inst_7:A2 0.4376
*END

*D_NET net_16 3.4210
*CONN
*I TAUGATE_83:Z O
*I inst_12:A I
*I inst_15:D I
*I inst_6:A1 I
*CAP
1 TAUGATE_83:Z 0.1283
2 net_16:1 0.3234
3 net_16:2 0.4610
4 inst_12:A 0.4832
5 net_16:3 0.4556
6 net_16:4 0.1835
7 net_16:5 0.0020
8 net_16:6 0.2614
9 inst_15:D 0.3010
10 net_16:7 0.3178
11 net_16:8 0.2541
12 inst_6:A1 0.2497
*RES
2 TAUGATE_83:Z net_16:1 0.2776
3 net_16:1 net_16:2 0.3781
4 net_16:2 inst_12:A 0.3766
5 net_16:1 net_16:3 0.2164
6 net_16:3 net_16:4 0.4372
7 net_16:4 net_16:5 0.1158
8 net_16:5 net_16:6 0.1153
9 net_16:6 inst_15:D 0.3810
10 net_16:1 net_16:7 0.4625
11 net_16:7 net_16:8 0.2343
12 net_16:8 inst_6:A1 0.0981
*END

*D_NET TAUNET_43 1.0934
*CONN
*I inst_13:ZN O
*I TAUGATE_43:A I
*CAP
1 inst_13:ZN 0.2382
2 TAUNET_43:1 0.0945
3 TAUNET_43:2 0.2326
4 TAUNET_43:3 0.0121
5 TAUNET_43:4 0.2674
6 TAUNET_43:5 0.2072
7 TAUGATE_43:A 0.0414
*RES
2 inst_13:ZN TAUNET_43:1 0.2455
3 TAUNET_43:1 TAUNET_43:2 0.1970
4 TAUNET_43:2 TAUNET_43:3 0.0138
5 TAUNET_43:3 TAUNET_43:4 0.4527
6 TAUNET_43:4 TAUNET_43:5 0.3131
7 TAUNET_43:5 TAUGATE_43:A 0.4392
*END

*D_NET TAUNET_68 1.6917
*CONN
*P G3 I
*I TAUGATE_68:A I
*CAP
1 G3 0.0368
2 TAUNET_68:1 0.2266
3 TAUNET_68:2 0.4199
4 TAUNET_68:3 0.3736
5 TAUNET_68:4 0.3306
6 TAUGATE_68:A 0.3042
*RES
2 G3 TAUNET_68:1 0.1317
3 TAUNET_68:1 TAUNET_68:2 0.1481
4 TAUNET_68:2 TAUNET_68:3 0.2485
5 TAUNET_68:3 TAUNET_68:4 0.2201
6 TAUNET_68:4 TAUGATE_68:A 0.2966
*END

*D_NET TAUNET_102 0.5227
*CONN
*I TAUGATE_14:Z O
*I TAUGATE_102:A I
*CAP
1 TAUGATE_14:Z 0.0758
2 TAUNET_102:1 0.3812
3 TAUGATE_102:A 0.0656
*RES
2 TAUGATE_14:Z TAUNET_102:1 0.1550
3 TAUNET_102:1 TAUGATE_102:A 0.0047
*END

*D_NET TAUNET_56 1.6139
*CONN
*I TAUGATE_39:Z O
*I TAUGATE_56:A I
*CAP
1 TAUGATE_39:Z 0.2138
2 TAUNET_56:1 0.2523
3 TAUNET_56:2 0.0497
4 TAUNET_56:3 0.4938
5 TAUNET_56:4 0.3913
6 TAUGATE_56:A 0.2131
*RES
2 TAUGATE_39:Z TAUNET_56:1 0.3201
3 TAUNET_56:1 TAUNET_56:2 0.0320
4 TAUNET_56:2 TAUNET_56:3 0.2786
5 TAUNET_56:3 TAUNET_56:4 0.3378
6 TAUNET_56:4 TAUGATE_56:A 0.4364
*END

*D_NET TAUNET_55 1.5961
*CONN
*I inst_5:ZN O
*I TAUGATE_55:A I
*CAP
1 inst_5:ZN 0.4527
2 TAUNET_55:1 0.3641
3 TAUNET_55:2 0.1740
4 TAUNET_55:3 0.2701
5 TAUGATE_55:A 0.3351
*RES
2 inst_5:ZN TAUNET_55:1 0.4105
3 TAUNET_55:1 TAUNET_55:2 0.3004
4 TAUNET_55:2 TAUNET_55:3 0.3665
5 TAUNET_55:3 TAUGATE_55:A 0.1341
*END

*D_NET TAUNET_98 0.7589
*CONN
*I inst_11:ZN O
*I TAUGATE_98:A I
*CAP
1 inst_11:ZN 0.1706
2 TAUNET_98:1 0.0751
3 TAUNET_98:2 0.1227
4 TAUNET_98:3 0.0294
5 TAUNET_98:4 0.0059
6 TAUGATE_98:A 0.3552
*RES
2 inst_11:ZN TAUNET_98:1 0.3839
3 TAUNET_98:1 TAUNET_98:2 0.1840
4 TAUNET_98:2 TAUNET_98:3 0.4010
5 TAUNET_98:3 TAUNET_98:4 0.3573
6 TAUNET_98:4 TAUGATE_98:A 0.4559
*END

*D_NET net_1 1.8802
*CONN
*I TAUGATE_96:Z O
*I inst_8:A I
*CAP
1 TAUGATE_96:Z 0.1715
2 net_1:1 0.3594
3 net_1:2 0.4902
4 net_1:3 0.4716
5 net_1:4 0.2112
6 inst_8:A 0.1762
*RES
2 TAUGATE_96:Z net_1:1 0.1166
3 net_1:1 net_1:2 0.1660
4 net_1:2 net_1:3 0.2177
5 net_1:3 net_1:4 0.2908
6 net_1:4 inst_8:A 0.3318
*END

*D_NET TAUNET_11 1.3234
*CONN
*I TAUGATE_46:Z O
*I TAUGATE_11:A I
*CAP
1 TAUGATE_46:Z 0.4080
2 TAUNET_11:1 0.1932
3 TAUNET_11:2 0.0675
4 TAUNET_11:3 0.0053
5 TAUNET_11:4 0.1459
6 TAUNET_11:5 0.0437
7 TAUGATE_11:A 0.4598
*RES
2 TAUGATE_46:Z TAUNET_11:1 0.3838
3 TAUNET_11:1 TAUNET_11:2 0.2033
4 TAUNET_11:2 TAUNET_11:3 0.3263
5 TAUNET_11:3 TAUNET_11:4 0.4574
6 TAUNET_11:4 TAUNET_11:5 0.4683
7 TAUNET_11:5 TAUGATE_11:A 0.1543
*END

*D_NET TAUNET_33 1.8258
*CONN
*I TAUGATE_60:Z O
*I TAUGATE_33:A I
*CAP
1 TAUGATE_60:Z 0.1669
2 TAUNET_33:1 0.4518
3 TAUNET_33:2 0.0570
4 TAUNET_33:3 0.4909
5 TAUNET_33:4 0.0572
6 TAUNET_33:5 0.5008
7 TAUGATE_33:A 0.1013
*RES
2 TAUGATE_60:Z TAUNET_33:1 0.2457
3 TAUNET_33:1 TAUNET_33:2 0.4210
4 TAUNET_33:2 TAUNET_33:3 0.2594
5 TAUNET_33:3 TAUNET_33:4 0.3565
6 TAUNET_33:4 TAUNET_33:5 0.4074
7 TAUNET_33:5 TAUGATE_33:A 0.4309
*END

*D_NET TAUNET_22 1.6029
*CONN
*I TAUGATE_48:Z O
*I TAUGATE_22:A I
*CAP
1 TAUGATE_48:Z 0.2931
2 TAUNET_22:1 0.2246
3 TAUNET_22:2 0.3320
4 TAUNET_22:3 0.3870
5 TAUGATE_22:A 0.3663
*RES
2 TAUGATE_48:Z TAUNET_22:1 0.1512
3 TAUNET_22:1 TAUNET_22:2 0.1368
4 TAUNET_22:2 TAUNET_22:3 0.4493
5 TAUNET_22:3 TAUGATE_22:A 0.4663
*END

*D_NET TAUNET_41 1.5003
*CONN
*I TAUGATE_13:Z O
*I TAUGATE_41:A I
*CAP
1 TAUGATE_13:Z 0.1873
2 TAUNET_41:1 0.3589
3 TAUNET_41:2 0.4697
4 TAUGATE_41:A 0.4844
*RES
2 TAUGATE_13:Z TAUNET_41:1 0.0401
3 TAUNET_41:1 TAUNET_41:2 0.2861
4 TAUNET_41:2 TAUGATE_41:A 0.1883
*END

*D_NET TAUNET_30 1.2973
*CONN
*I TAUGATE_74:Z O
*I TAUGATE_30:A I
*CAP
1 TAUGATE_74:Z 0.0604
2 TAUNET_30:1 0.2921
3 TAUNET_30:2 0.4162
4 TAUNET_30:3 0.1285
5 TAUNET_30:4 0.0491
6 TAUGATE_30:A 0.3511
*RES
2 TAUGATE_74:Z TAUNET_30:1 0.2111
3 TAUNET_30:1 TAUNET_30:2 0.3010
4 TAUNET_30:2 TAUNET_30:3 0.1515
5 TAUNET_30:3 TAUNET_30:4 0.0492
6 TAUNET_30:4 TAUGATE_30:A 0.2707
*END

*D_NET TAUNET_88 0.7974
*CONN
*I TAUGATE_24:Z O
*I TAUGATE_88:A I
*CAP
1 TAUGATE_24:Z 0.2365
2 TAUNET_88:1 0.2080
3 TAUGATE_88:A 0.3529
*RES
2 TAUGATE_24:Z TAUNET_88:1 0.4886
3 TAUNET_88:1 TAUGATE_88:A 0.3648
*END

*D_NET TAUNET_58 1.5829
*CONN
*I inst_6:ZN O
*I TAUGATE_58:A I
*CAP
1 inst_6:ZN 0.3187
2 TAUNET_58:1 0.0224
3 TAUNET_58:2 0.4026
4 TAUNET_58:3 0.2784
5 TAUNET_58:4 0.1803
6 TAUNET_58:5 0.0882
7 TAUGATE_58:A 0.2924
*RES
2 inst_6:ZN TAUNET_58:1 0.4780
3 TAUNET_58:1 TAUNET_58:2 0.3510
4 TAUNET_58:2 TAUNET_58:3 0.1182
5 TAUNET_58:3 TAUNET_58:4 0.2614
6 TAUNET_58:4 TAUNET_58:5 0.1530
7 TAUNET_58:5 TAUGATE_58:A 0.2582
*END

*D_NET TAUNET_5 1.1301
*CONN
*I TAUGATE_63:Z O
*I TAUGATE_5:A I
*CAP
1 TAUGATE_63:Z 0.0762
2 TAUNET_5:1 0.3922
3 TAUNET_5:2 0.3950
4 TAUGATE_5:A 0.2666
*RES
2 TAUGATE_63:Z TAUNET_5:1 0.4255
3 TAUNET_5:1 TAUNET_5:2 0.4671
4 TAUNET_5:2 TAUGATE_5:A 0.2972
*END

*D_NET net_2 2.5412
*CONN
*I TAUGATE_53:Z O
*I inst_3:A1 I
*I inst_4:A1 I
*CAP
1 TAUGATE_53:Z 0.4880
2 net_2:1 0.3167
3 net_2:2 0.3376
4 net_2:3 0.1073
5 net_2:4 0.3579
6 net_2:5 0.1300
7 inst_4:A1 0.3795
8 net_2:6 0.0541
9 inst_3:A1 0.3700
*RES
2 TAUGATE_53:Z net_2:1 0.2362
3 net_2:1 net_2:2 0.1908
4 net_2:2 net_2:3 0.1996
5 net_2:3 net_2:4 0.3123
6 net_2:4 net_2:5 0.1251
7 net_2:5 inst_4:A1 0.0048
8 net_2:4 net_2:6 0.3260
9 net_2:6 inst_3:A1 0.3466
*END

*D_NET net_10 0.9920
*CONN
*I TAUGATE_41:Z O
*I inst_14:D I
*CAP
1 TAUGATE_41:Z 0.4038
2 net_10:1 0.0063
3 net_10:2 0.4904
4 inst_14:D 0.0915
*RES
2 TAUGATE_41:Z net_10:1 0.4619
3 net_10:1 net_10:2 0.1065
4 net_10:2 inst_14:D 0.1990
*END

*D_NET net_9 2.1780
*CONN
*I TAUGATE_47:Z O
*I inst_2:A2 I
*I inst_5:A2 I
*CAP
1 TAUGATE_47:Z 0.0690
2 net_9:1 0.2934
3 net_9:2 0.0661
4 net_9:3 0.0281
5 inst_5:A2 0.1011
6 net_9:4 0.4045
7 net_9:5 0.4267
8 net_9:6 0.4596
9 inst_2:A2 0.3295
*RES
2 TAUGATE_47:Z net_9:1 0.2539
3 net_9:1 net_9:2 0.0765
4 net_9:2 net_9:3 0.1980
5 net_9:3 inst_5:A2 0.3226
6 net_9:1 net_9:4 0.4724
7 net_9:4 net_9:5 0.4631
8 net_9:5 net_9:6 0.0407
9 net_9:6 inst_2:A2 0.4130
*END

*D_NET TAUNET_64 0.9034
*CONN
*I inst_7:ZN O
*I TAUGATE_64:A I
*CAP
1 inst_7:ZN 0.0714
2 TAUNET_64:1 0.2588
3 TAUNET_64:2 0.0339
4 TAUNET_64:3 0.0519
5 TAUGATE_64:A 0.4874
*RES
2 inst_7:ZN TAUNET_64:1 0.0374
3 TAUNET_64:1 TAUNET_64:2 0.2489
4 TAUNET_64:2 TAUNET_64:3 0.2584
5 TAUNET_64:3 TAUGATE_64:A 0.0346
*END

*D_NET TAUNET_52 0.9383
*CONN
*I TAUGATE_11:Z O
*I TAUGATE_52:A I
*CAP
1 TAUGATE_11:Z 0.0645
2 TAUNET_52:1 0.4099
3 TAUNET_52:2 0.1540
4 TAUNET_52:3 0.0325
5 TAUNET_52:4 0.0924
6 TAUGATE_52:A 0.1850
*RES
2 TAUGATE_11:Z TAUNET_52:1 0.1516
3 TAUNET_52:1 TAUNET_52:2 0.2746
4 TAUNET_52:2 TAUNET_52:3 0.4228
5 TAUNET_52:3 TAUNET_52:4 0.1417
6 TAUNET_52:4 TAUGATE_52:A 0.3754
*END

*D_NET TAUNET_61 0.9794
*CONN
*I TAUGATE_29:Z O
*I TAUGATE_61:A I
*CAP
1 TAUGATE_29:Z 0.0068
2 TAUNET_61:1 0.4220
3 TAUNET_61:2 0.4926
4 TAUGATE_61:A 0.0580
*RES
2 TAUGATE_29:Z TAUNET_61:1 0.3810
3 TAUNET_61:1 TAUNET_61:2 0.2195
4 TAUNET_61:2 TAUGATE_61:A 0.2042
*END

*D_NET TAUNET_59 1.5343
*CONN