*SPEF "IEEE 1481-1998"
*DESIGN "changes"
*DATE "Tue Dec 02 20:01:59 2014"
*VENDOR "TAU 2015 Contest"
*PROGRAM "Benchmark Parasitic Generator"
*VERSION "0.0"
*DESIGN_FLOW "NETLIST_TYPE_VERILOG"
*DIVIDER /
*DELIMITER :
*BUS_DELIMITER [ ]
*T_UNIT 1 PS
*C_UNIT 1 FF
*R_UNIT 1 KOHM
*L_UNIT 1 UH

*D_NET net_14 1.7439
*CONN
*I TAUGATE_1:Z O
*I inst_1:A1 I
*CAP
1 TAUGATE_1:Z 0.2611
2 net_14:1 0.4098
3 net_14:2 0.5009
4 net_14:3 0.2843
5 inst_1:A1 0.2878
*RES
2 TAUGATE_1:Z net_14:1 0.1659
3 net_14:1 net_14:2 0.2742
4 net_14:2 net_14:3 0.3494
5 net_14:3 inst_1:A1 0.1485
*END

*D_NET TAUNET_1 1.3760
*CONN
*I inst_3:ZN O
*I TAUGATE_1:A I
*CAP
1 inst_3:ZN 0.2110
2 TAUNET_1:1 0.3070
3 TAUNET_1:2 0.3583
4 TAUNET_1:3 0.1395
5 TAUNET_1:4 0.0646
6 TAUNET_1:5 0.0794
7 TAUGATE_1:A 0.2161
*RES
2 inst_3:ZN TAUNET_1:1 0.1614
3 TAUNET_1:1 TAUNET_1:2 0.3312
4 TAUNET_1:2 TAUNET_1:3 0.3755
5 TAUNET_1:3 TAUNET_1:4 0.4644
6 TAUNET_1:4 TAUNET_1:5 0.4559
7 TAUNET_1:5 TAUGATE_1:A 0.4050
*END

