*SPEF "IEEE 1481-1998"
*DESIGN "changes"
*DATE "Tue Dec 02 18:55:24 2014"
*VENDOR "TAU 2015 Contest"
*PROGRAM "Benchmark Parasitic Generator"
*VERSION "0.0"
*DESIGN_FLOW "NETLIST_TYPE_VERILOG"
*DIVIDER /
*DELIMITER :
*BUS_DELIMITER [ ]
*T_UNIT 1 PS
*C_UNIT 1 FF
*R_UNIT 1 KOHM
*L_UNIT 1 UH

*D_NET net_5383 5.2605
*CONN
*I inst_3248:ZN O
*I inst_1646:C2 I
*I inst_1464:B2 I
*I inst_1631:C2 I
*I inst_1640:B2 I
*CAP
1 inst_3248:ZN 0.2611
2 net_5383:1 0.4098
3 net_5383:2 0.5009
4 net_5383:3 0.2843
5 inst_1464:B2 0.2878
6 net_5383:4 0.4685
7 net_5383:5 0.3070
8 net_5383:6 0.3583
9 inst_1646:C2 0.1395
10 net_5383:7 0.4644
11 net_5383:8 0.4559
12 net_5383:9 0.4050
13 net_5383:10 0.0154
14 inst_1631:C2 0.1670
15 net_5383:11 0.2909
16 net_5383:12 0.3706
17 inst_1640:B2 0.0740
*RES
2 inst_3248:ZN net_5383:1 0.1659
3 net_5383:1 net_5383:2 0.2742
4 net_5383:2 net_5383:3 0.3494
5 net_5383:3 inst_1464:B2 0.1485
6 net_5383:3 net_5383:4 0.0646
7 net_5383:4 net_5383:5 0.0794
8 net_5383:5 net_5383:6 0.2161
9 net_5383:6 inst_1646:C2 0.1614
10 net_5383:4 net_5383:7 0.1555
11 net_5383:7 net_5383:8 0.2440
12 net_5383:8 net_5383:9 0.0332
13 net_5383:9 net_5383:10 0.0406
14 net_5383:10 inst_1631:C2 0.2732
15 net_5383:3 net_5383:11 0.4871
16 net_5383:11 net_5383:12 0.4951
17 net_5383:12 inst_1640:B2 0.4125
*END

*D_NET net_4365 0.8718
*CONN
*I inst_4362:ZN O
*I inst_1976:A I
*CAP
1 inst_4362:ZN 0.1285
2 net_4365:1 0.2926
3 inst_1976:A 0.4507
*RES
2 inst_4362:ZN net_4365:1 0.3356
3 net_4365:1 inst_1976:A 0.3995
*END

*D_NET net_5506 1.7408
*CONN
*I inst_2940:ZN O
*I inst_2350:A1 I
*CAP
1 inst_2940:ZN 0.4708
2 net_5506:1 0.3464
3 net_5506:2 0.0305
4 net_5506:3 0.2383
5 net_5506:4 0.4020
6 inst_2350:A1 0.2529
*RES
2 inst_2940:ZN net_5506:1 0.2665
3 net_5506:1 net_5506:2 0.4354
4 net_5506:2 net_5506:3 0.1977
5 net_5506:3 net_5506:4 0.0788
6 net_5506:4 inst_2350:A1 0.3276
*END

*D_NET net_7539 2.6518
*CONN
*I inst_1037:Q O
*I inst_1037:D I
*I inst_7576:A1 I
*CAP
1 inst_1037:Q 0.3292
2 net_7539:1 0.2236
3 inst_7576:A1 0.1922
4 net_7539:2 0.4680
5 net_7539:3 0.2976
6 net_7539:4 0.2331
7 net_7539:5 0.2927
8 net_7539:6 0.3943
9 inst_1037:D 0.2211
*RES
2 inst_1037:Q net_7539:1 0.2805
3 net_7539:1 inst_7576:A1 0.1322
4 net_7539:1 net_7539:2 0.1955
5 net_7539:2 net_7539:3 0.1868
6 net_7539:3 net_7539:4 0.4889
7 net_7539:4 net_7539:5 0.0703
8 net_7539:5 net_7539:6 0.3298
9 net_7539:6 inst_1037:D 0.4131
*END

*D_NET net_2807 2.6155
*CONN
*I inst_1391:ZN O
*I inst_2205:A2 I
*I inst_2140:B1 I
*CAP
1 inst_1391:ZN 0.2621
2 net_2807:1 0.1808
3 net_2807:2 0.0717
4 net_2807:3 0.3990
5 net_2807:4 0.4035
6 net_2807:5 0.0219
7 inst_2140:B1 0.0830
8 net_2807:6 0.4382
9 net_2807:7 0.3498
10 inst_2205:A2 0.4055
*RES
2 inst_1391:ZN net_2807:1 0.4539
3 net_2807:1 net_2807:2 0.1250
4 net_2807:2 net_2807:3 0.3196
5 net_2807:3 net_2807:4 0.4976
6 net_2807:4 net_2807:5 0.3591
7 net_2807:5 inst_2140:B1 0.2780
8 net_2807:2 net_2807:6 0.4519
9 net_2807:6 net_2807:7 0.4658
10 net_2807:7 inst_2205:A2 0.3690
*END

*D_NET net_1354 1.3701
*CONN
*I inst_3939:ZN O
*I inst_2812:A1 I
*CAP
1 inst_3939:ZN 0.0632
2 net_1354:1 0.4700
3 net_1354:2 0.3789
4 net_1354:3 0.3545
5 inst_2812:A1 0.1033
*RES
2 inst_3939:ZN net_1354:1 0.4316
3 net_1354:1 net_1354:2 0.1782
4 net_1354:2 net_1354:3 0.4734
5 net_1354:3 inst_2812:A1 0.0376
*END

*D_NET TAUNET_2405 6.7747
*CONN
*I TAUGATE_2874:Z O
*I TAUGATE_2405:A I
*I inst_4849:A I
*I inst_7413:A1 I
*I inst_3262:A1 I
*I inst_3250:A1 I
*I inst_2821:A2 I
*CAP
1 TAUGATE_2874:Z 0.3594
2 TAUNET_2405:1 0.3248
3 inst_4849:A 0.2597
4 TAUNET_2405:2 0.2980
5 TAUNET_2405:3 0.2454
6 TAUNET_2405:4 0.4670
7 TAUNET_2405:5 0.1921
8 TAUGATE_2405:A 0.1376
9 TAUNET_2405:6 0.4004
10 TAUNET_2405:7 0.4814
11 TAUNET_2405:8 0.1341
12 TAUNET_2405:9 0.3915
13 TAUNET_2405:10 0.0282
14 inst_7413:A1 0.3089
15 TAUNET_2405:11 0.0666
16 TAUNET_2405:12 0.3854
17 TAUNET_2405:13 0.3580
18 inst_3262:A1 0.3774
19 TAUNET_2405:14 0.0112
20 TAUNET_2405:15 0.3530
21 inst_3250:A1 0.1128
22 TAUNET_2405:16 0.1620
23 TAUNET_2405:17 0.0029
24 TAUNET_2405:18 0.2883
25 TAUNET_2405:19 0.1903
26 inst_2821:A2 0.4381
*RES
2 TAUGATE_2874:Z TAUNET_2405:1 0.1267
3 TAUNET_2405:1 inst_4849:A 0.3840
4 TAUNET_2405:1 TAUNET_2405:2 0.4443
5 TAUNET_2405:2 TAUNET_2405:3 0.1288
6 TAUNET_2405:3 TAUNET_2405:4 0.3022
7 TAUNET_2405:4 TAUNET_2405:5 0.1405
8 TAUNET_2405:5 TAUGATE_2405:A 0.0668
9 TAUNET_2405:4 TAUNET_2405:6 0.0253
10 TAUNET_2405:6 TAUNET_2405:7 0.3105
11 TAUNET_2405:7 TAUNET_2405:8 0.1881
12 TAUNET_2405:8 TAUNET_2405:9 0.2034
13 TAUNET_2405:9 TAUNET_2405:10 0.1592
14 TAUNET_2405:10 inst_7413:A1 0.3147
15 TAUNET_2405:8 TAUNET_2405:11 0.2731
16 TAUNET_2405:11 TAUNET_2405:12 0.1525
17 TAUNET_2405:12 TAUNET_2405:13 0.0518
18 TAUNET_2405:13 inst_3262:A1 0.2548
19 TAUNET_2405:4 TAUNET_2405:14 0.2239
20 TAUNET_2405:14 TAUNET_2405:15 0.0917
21 TAUNET_2405:15 inst_3250:A1 0.4230
22 TAUNET_2405:5 TAUNET_2405:16 0.3484
23 TAUNET_2405:16 TAUNET_2405:17 0.0801
24 TAUNET_2405:17 TAUNET_2405:18 0.1392
25 TAUNET_2405:18 TAUNET_2405:19 0.1891
26 TAUNET_2405:19 inst_2821:A2 0.0464
*END

*D_NET TAUNET_4624 1.0649
*CONN
*I TAUGATE_1013:Z O
*I TAUGATE_4624:A I
*CAP
1 TAUGATE_1013:Z 0.0279
2 TAUNET_4624:1 0.0649
3 TAUNET_4624:2 0.0510
4 TAUNET_4624:3 0.1600
5 TAUNET_4624:4 0.1748
6 TAUNET_4624:5 0.4787
7 TAUGATE_4624:A 0.1076
*RES
2 TAUGATE_1013:Z TAUNET_4624:1 0.4606
3 TAUNET_4624:1 TAUNET_4624:2 0.3388
4 TAUNET_4624:2 TAUNET_4624:3 0.4657
5 TAUNET_4624:3 TAUNET_4624:4 0.3595
6 TAUNET_4624:4 TAUNET_4624:5 0.2471
7 TAUNET_4624:5 TAUGATE_4624:A 0.0832
*END

*D_NET net_7340 1.8158
*CONN
*I inst_398:Q O
*I inst_3676:A1 I
*I inst_398:SI I
*CAP
1 inst_398:Q 0.3736
2 net_7340:1 0.3644
3 inst_3676:A1 0.0829
4 net_7340:2 0.1165
5 net_7340:3 0.0986
6 net_7340:4 0.2243
7 net_7340:5 0.1286
8 inst_398:SI 0.4269
*RES
2 inst_398:Q net_7340:1 0.1977
3 net_7340:1 inst_3676:A1 0.4694
4 net_7340:1 net_7340:2 0.2482
5 net_7340:2 net_7340:3 0.2195
6 net_7340:3 net_7340:4 0.1533
7 net_7340:4 net_7340:5 0.4091
8 net_7340:5 inst_398:SI 0.2613
*END

*D_NET TAUNET_2721 1.5043
*CONN
*I inst_3238:ZN O
*I TAUGATE_2721:A I
*CAP
1 inst_3238:ZN 0.1869
2 TAUNET_2721:1 0.3047
3 TAUNET_2721:2 0.1200
4 TAUNET_2721:3 0.4969
5 TAUNET_2721:4 0.1210
6 TAUNET_2721:5 0.1733
7 TAUGATE_2721:A 0.1014
*RES
2 inst_3238:ZN TAUNET_2721:1 0.0283
3 TAUNET_2721:1 TAUNET_2721:2 0.2763
4 TAUNET_2721:2 TAUNET_2721:3 0.2945
5 TAUNET_2721:3 TAUNET_2721:4 0.3177
6 TAUNET_2721:4 TAUNET_2721:5 0.2101
7 TAUNET_2721:5 TAUGATE_2721:A 0.3390
*END

*D_NET net_5590 1.1506
*CONN
*I inst_1704:ZN O
*I inst_6469:D I
*CAP
1 inst_1704:ZN 0.3404
2 net_5590:1 0.3617
3 net_5590:2 0.0856
4 inst_6469:D 0.3629
*RES
2 inst_1704:ZN net_5590:1 0.2821
3 net_5590:1 net_5590:2 0.3900
4 net_5590:2 inst_6469:D 0.0557
*END

*D_NET net_1215 2.4217
*CONN
*I inst_4197:ZN O
*I inst_2827:A3 I
*I inst_3450:A1 I
*CAP
1 inst_4197:ZN 0.2716
2 net_1215:1 0.1079
3 net_1215:2 0.3323
4 net_1215:3 0.2907
5 net_1215:4 0.0362
6 inst_2827:A3 0.4966
7 net_1215:5 0.4602
8 inst_3450:A1 0.4262
*RES
2 inst_4197:ZN net_1215:1 0.4101
3 net_1215:1 net_1215:2 0.2702
4 net_1215:2 net_1215:3 0.2135
5 net_1215:3 net_1215:4 0.0419
6 net_1215:4 inst_2827:A3 0.2773
7 net_1215:1 net_1215:5 0.2009
8 net_1215:5 inst_3450:A1 0.3114
*END

*D_NET net_4384 1.7860
*CONN
*I inst_4343:ZN O
*I inst_1848:A I
*CAP
1 inst_4343:ZN 0.3972
2 net_4384:1 0.2443
3 net_4384:2 0.2458
4 net_4384:3 0.3734
5 net_4384:4 0.1567
6 net_4384:5 0.1247
7 inst_1848:A 0.2439
*RES
2 inst_4343:ZN net_4384:1 0.2588
3 net_4384:1 net_4384:2 0.4474
4 net_4384:2 net_4384:3 0.3528
5 net_4384:3 net_4384:4 0.0472
6 net_4384:4 net_4384:5 0.4436
7 net_4384:5 inst_1848:A 0.1981
*END

*D_NET net_834 1.5484
*CONN
*I inst_109:ZN O
*I inst_2175:A2 I
*CAP
1 inst_109:ZN 0.0169
2 net_834:1 0.4684
3 net_834:2 0.2490
4 net_834:3 0.0579
5 net_834:4 0.0423
6 net_834:5 0.2861
7 inst_2175:A2 0.4278
*RES
2 inst_109:ZN net_834:1 0.3875
3 net_834:1 net_834:2 0.4796
4 net_834:2 net_834:3 0.3740
5 net_834:3 net_834:4 0.1554
6 net_834:4 net_834:5 0.0209
7 net_834:5 inst_2175:A2 0.4380
*END

*D_NET TAUNET_2770 1.7573
*CONN
*I TAUGATE_4716:Z O
*I TAUGATE_2770:A I
*CAP
1 TAUGATE_4716:Z 0.4990
2 TAUNET_2770:1 0.1115
3 TAUNET_2770:2 0.4947
4 TAUNET_2770:3 0.3666
5 TAUGATE_2770:A 0.2854
*RES
2 TAUGATE_4716:Z TAUNET_2770:1 0.4464
3 TAUNET_2770:1 TAUNET_2770:2 0.2438
4 TAUNET_2770:2 TAUNET_2770:3 0.2969
5 TAUNET_2770:3 TAUGATE_2770:A 0.3091
*END

*D_NET net_5361 3.2538
*CONN
*I inst_7566:ZN O
*I inst_1904:B1 I
*I inst_1824:B1 I
*I inst_1808:B1 I
*I inst_1840:B1 I
*CAP
1 inst_7566:ZN 0.2264
2 net_5361:1 0.2044
3 net_5361:2 0.1531
4 net_5361:3 0.3886
5 net_5361:4 0.2618
6 inst_1840:B1 0.2468
7 net_5361:5 0.4145
8 inst_1824:B1 0.1459
9 net_5361:6 0.0212
10 net_5361:7 0.1417
11 inst_1808:B1 0.2190
12 net_5361:8 0.0526
13 net_5361:9 0.2388
14 net_5361:10 0.1787
15 inst_1904:B1 0.3603
*RES
2 inst_7566:ZN net_5361:1 0.4002
3 net_5361:1 net_5361:2 0.3652
4 net_5361:2 net_5361:3 0.1857
5 net_5361:3 net_5361:4 0.0562
6 net_5361:4 inst_1840:B1 0.0882
7 net_5361:3 net_5361:5 0.1130
8 net_5361:5 inst_1824:B1 0.1026
9 net_5361:3 net_5361:6 0.4826
10 net_5361:6 net_5361:7 0.1138
11 net_5361:7 inst_1808:B1 0.4033
12 net_5361:6 net_5361:8 0.0603
13 net_5361:8 net_5361:9 0.0863
14 net_5361:9 net_5361:10 0.3102
15 net_5361:10 inst_1904:B1 0.1239
*END

*D_NET net_3668 1.6234
*CONN
*I inst_3289:ZN O
*I inst_2092:A I
*CAP
1 inst_3289:ZN 0.0055
2 net_3668:1 0.2412
3 net_3668:2 0.3995
4 net_3668:3 0.4441
5 net_3668:4 0.4218
6 net_3668:5 0.0848
7 inst_2092:A 0.0266
*RES
2 inst_3289:ZN net_3668:1 0.0274
3 net_3668:1 net_3668:2 0.4218
4 net_3668:2 net_3668:3 0.2061
5 net_3668:3 net_3668:4 0.2110
6 net_3668:4 net_3668:5 0.4583
7 net_3668:5 inst_2092:A 0.3985
*END

*D_NET net_2005 2.4554
*CONN
*I inst_5318:ZN O
*I inst_7521:A1 I
*I inst_3186:A1 I
*CAP
1 inst_5318:ZN 0.0725
2 net_2005:1 0.3124
3 net_2005:2 0.3685
4 net_2005:3 0.4317
5 net_2005:4 0.1801
6 net_2005:5 0.2826
7 inst_7521:A1 0.3420
8 net_2005:6 0.0327
9 net_2005:7 0.0608
10 inst_3186:A1 0.3721
*RES
2 inst_5318:ZN net_2005:1 0.0965
3 net_2005:1 net_2005:2 0.2555
4 net_2005:2 net_2005:3 0.1304
5 net_2005:3 net_2005:4 0.3675
6 net_2005:4 net_2005:5 0.4634
7 net_2005:5 inst_7521:A1 0.2869
8 net_2005:2 net_2005:6 0.4648
9 net_2005:6 net_2005:7 0.2376
10 net_2005:7 inst_3186:A1 0.1146
*END

*D_NET net_6884 1.0898
*CONN
*I inst_761:Q O
*I inst_3004:A1 I
*I inst_761:D I
*CAP
1 inst_761:Q 0.1439
2 net_6884:1 0.2502
3 inst_761:D 0.2506
4 net_6884:2 0.2747
5 inst_3004:A1 0.1704
*RES
2 inst_761:Q net_6884:1 0.4486
3 net_6884:1 inst_761:D 0.0641
4 net_6884:1 net_6884:2 0.2303
5 net_6884:2 inst_3004:A1 0.0121
*END

*D_NET net_1652 1.6610
*CONN
*I inst_2529:ZN O
*I inst_3246:A1 I
*I inst_79:A I
*CAP
1 inst_2529:ZN 0.0267
2 net_1652:1 0.1079
3 net_1652:2 0.3621
4 inst_3246:A1 0.1254
5 net_1652:3 0.3990
6 net_1652:4 0.0185
7 net_1652:5 0.3777
8 inst_79:A 0.2437
*RES
2 inst_2529:ZN net_1652:1 0.3490
3 net_1652:1 net_1652:2 0.4751
4 net_1652:2 inst_3246:A1 0.3195
5 net_1652:1 net_1652:3 0.3641
6 net_1652:3 net_1652:4 0.1411
7 net_1652:4 net_1652:5 0.2452
8 net_1652:5 inst_79:A 0.2723
*END

*D_NET net_3378 1.1312
*CONN
*I TAUGATE_2136:Z O
*I inst_2197:A1 I
*I inst_7321:A2 I
*CAP
1 TAUGATE_2136:Z 0.2449
2 net_3378:1 0.0917
3 inst_2197:A1 0.0078
4 net_3378:2 0.0937
5 net_3378:3 0.2944
6 inst_7321:A2 0.3987
*RES
2 TAUGATE_2136:Z net_3378:1 0.0227
3 net_3378:1 inst_2197:A1 0.0264
4 net_3378:1 net_3378:2 0.0209
5 net_3378:2 net_3378:3 0.1182
6 net_3378:3 inst_7321:A2 0.1067
*END

*D_NET net_1123 3.7134
*CONN
*I inst_6018:ZN O
*I inst_4453:A1 I
*I inst_7356:A1 I
*CAP
1 inst_6018:ZN 0.3672
2 net_1123:1 0.1157
3 net_1123:2 0.1901
4 net_1123:3 0.2138
5 net_1123:4 0.5008
6 net_1123:5 0.2979
7 inst_7356:A1 0.3428
8 net_1123:6 0.3676
9 net_1123:7 0.1603
10 net_1123:8 0.4423
11 net_1123:9 0.1159
12 net_1123:10 0.4527
13 inst_4453:A1 0.1465
*RES
2 inst_6018:ZN net_1123:1 0.2325
3 net_1123:1 net_1123:2 0.2733
4 net_1123:2 net_1123:3 0.1266
5 net_1123:3 net_1123:4 0.3814
6 net_1123:4 net_1123:5 0.1363
7 net_1123:5 inst_7356:A1 0.3277
8 net_1123:4 net_1123:6 0.1463
9 net_1123:6 net_1123:7 0.4621
10 net_1123:7 net_1123:8 0.4065
11 net_1123:8 net_1123:9 0.0227
12 net_1123:9 net_1123:10 0.2236
13 net_1123:10 inst_4453:A1 0.4114
*END

*D_NET net_7618 0.9678
*CONN
*I inst_6744:QN O
*I inst_5881:A I
*CAP
1 inst_6744:QN 0.1546
2 net_7618:1 0.4367
3 net_7618:2 0.3452
4 inst_5881:A 0.0313
*RES
2 inst_6744:QN net_7618:1 0.1217
3 net_7618:1 net_7618:2 0.0111
4 net_7618:2 inst_5881:A 0.1222
*END

*D_NET TAUNET_4711 3.8533
*CONN
*I inst_2184:ZN O
*I TAUGATE_4711:A I
*I inst_7803:A3 I
*CAP
1 inst_2184:ZN 0.1692
2 TAUNET_4711:1 0.4978
3 TAUNET_4711:2 0.2563
4 TAUNET_4711:3 0.2595
5 TAUNET_4711:4 0.2603
6 TAUNET_4711:5 0.2874
7 TAUGATE_4711:A 0.3072
8 TAUNET_4711:6 0.4796
9 TAUNET_4711:7 0.3806
10 TAUNET_4711:8 0.4946
11 inst_7803:A3 0.4608
*RES
2 inst_2184:ZN TAUNET_4711:1 0.2768
3 TAUNET_4711:1 TAUNET_4711:2 0.1679
4 TAUNET_4711:2 TAUNET_4711:3 0.2053
5 TAUNET_4711:3 TAUNET_4711:4 0.2140
6 TAUNET_4711:4 TAUNET_4711:5 0.3306
7 TAUNET_4711:5 TAUGATE_4711:A 0.1569
8 TAUNET_4711:3 TAUNET_4711:6 0.4692
9 TAUNET_4711:6 TAUNET_4711:7 0.4766
10 TAUNET_4711:7 TAUNET_4711:8 0.0589
11 TAUNET_4711:8 inst_7803:A3 0.0962
*END

*D_NET net_6611 2.1074
*CONN
*I inst_607:Q O
*I inst_3121:A1 I
*I inst_607:D I
*CAP
1 inst_607:Q 0.1750
2 net_6611:1 0.0845
3 net_6611:2 0.1888
4 net_6611:3 0.1436
5 net_6611:4 0.1762
6 net_6611:5 0.4748
7 inst_3121:A1 0.0806
8 net_6611:6 0.4110
9 net_6611:7 0.0191
10 inst_607:D 0.3538
*RES
2 inst_607:Q net_6611:1 0.0407
3 net_6611:1 net_6611:2 0.2069
4 net_6611:2 net_6611:3 0.0491
5 net_6611:3 net_6611:4 0.4137
6 net_6611:4 net_6611:5 0.3046
7 net_6611:5 inst_3121:A1 0.2987
8 net_6611:3 net_6611:6 0.4300
9 net_6611:6 net_6611:7 0.3629
10 net_6611:7 inst_607:D 0.0787
*END

*D_NET net_2233 2.0675
*CONN
*I inst_7787:ZN O
*I inst_6944:D I
*CAP
1 inst_7787:ZN 0.2971
2 net_2233:1 0.5010
3 net_2233:2 0.3538
4 net_2233:3 0.4649
5 net_2233:4 0.0482
6 net_2233:5 0.1062
7 inst_6944:D 0.2963
*RES
2 inst_7787:ZN net_2233:1 0.4911
3 net_2233:1 net_2233:2 0.2002
4 net_2233:2 net_2233:3 0.2573
5 net_2233:3 net_2233:4 0.3761
6 net_2233:4 net_2233:5 0.0616
7 net_2233:5 inst_6944:D 0.4298
*END

*D_NET net_2868 1.9874
*CONN
*I inst_1422:ZN O
*I inst_1679:C1 I
*I inst_2447:A1 I
*CAP
1 inst_1422:ZN 0.2634
2 net_2868:1 0.0745
3 inst_2447:A1 0.1738
4 net_2868:2 0.3095
5 net_2868:3 0.4895
6 net_2868:4 0.4033
7 inst_1679:C1 0.2734
*RES
2 inst_1422:ZN net_2868:1 0.4336
3 net_2868:1 inst_2447:A1 0.4556
4 net_2868:1 net_2868:2 0.3461
5 net_2868:2 net_2868:3 0.3729
6 net_2868:3 net_2868:4 0.0418
7 net_2868:4 inst_1679:C1 0.3671
*END

*D_NET net_6908 1.9467
*CONN
*I inst_780:Q O
*I inst_3742:A1 I
*I inst_780:SI I
*CAP
1 inst_780:Q 0.1458
2 net_6908:1 0.0683
3 net_6908:2 0.2135
4 net_6908:3 0.4484
5 net_6908:4 0.1379
6 net_6908:5 0.1139
7 inst_780:SI 0.0489
8 net_6908:6 0.2818
9 net_6908:7 0.3290
10 inst_3742:A1 0.1592
*RES
2 inst_780:Q net_6908:1 0.0861
3 net_6908:1 net_6908:2 0.1477
4 net_6908:2 net_6908:3 0.4806
5 net_6908:3 net_6908:4 0.3473
6 net_6908:4 net_6908:5 0.1114
7 net_6908:5 inst_780:SI 0.0198
8 net_6908:3 net_6908:6 0.4236
9 net_6908:6 net_6908:7 0.3328
10 net_6908:7 inst_3742:A1 0.1906
*END

*D_NET net_4675 1.5747
*CONN
*I inst_4251:ZN O
*I inst_1790:A I
*CAP
1 inst_4251:ZN 0.4347
2 net_4675:1 0.1394
3 net_4675:2 0.0096
4 net_4675:3 0.4963
5 net_4675:4 0.2377
6 inst_1790:A 0.2571
*RES
2 inst_4251:ZN net_4675:1 0.3610
3 net_4675:1 net_4675:2 0.0042
4 net_4675:2 net_4675:3 0.2690
5 net_4675:3 net_4675:4 0.3841
6 net_4675:4 inst_1790:A 0.3400
*END

*D_NET net_3351 1.2277
*CONN
*I inst_1554:ZN O
*I inst_7001:D I
*CAP
1 inst_1554:ZN 0.3112
2 net_3351:1 0.4134
3 net_3351:2 0.0741
4 inst_7001:D 0.4290
*RES
2 inst_1554:ZN net_3351:1 0.4891
3 net_3351:1 net_3351:2 0.0621
4 net_3351:2 inst_7001:D 0.2122
*END

*D_NET TAUNET_5055 0.7629
*CONN
*I inst_2140:ZN O
*I TAUGATE_5055:A I
*CAP
1 inst_2140:ZN 0.1253
2 TAUNET_5055:1 0.2343
3 TAUNET_5055:2 0.1106
4 TAUNET_5055:3 0.0283
5 TAUGATE_5055:A 0.2644
*RES
2 inst_2140:ZN TAUNET_5055:1 0.3395
3 TAUNET_5055:1 TAUNET_5055:2 0.4160
4 TAUNET_5055:2 TAUNET_5055:3 0.1311
5 TAUNET_5055:3 TAUGATE_5055:A 0.1702
*END

*D_NET net_3653 2.0986
*CONN
*I inst_5429:ZN O
*I inst_218:D I
*I inst_3296:A1 I
*CAP
1 inst_5429:ZN 0.0383
2 net_3653:1 0.2177
3 net_3653:2 0.0520
4 net_3653:3 0.1787
5 inst_218:D 0.3277
6 net_3653:4 0.0500
7 net_3653:5 0.3450
8 net_3653:6 0.2552
9 net_3653:7 0.2397
10 inst_3296:A1 0.3943
*RES
2 inst_5429:ZN net_3653:1 0.2308
3 net_3653:1 net_3653:2 0.1825
4 net_3653:2 net_3653:3 0.4154
5 net_3653:3 inst_218:D 0.4205
6 net_3653:1 net_3653:4 0.0450
7 net_3653:4 net_3653:5 0.3586
8 net_3653:5 net_3653:6 0.1804
9 net_3653:6 net_3653:7 0.2132
10 net_3653:7 inst_3296:A1 0.3448
*END

*D_NET net_2946 0.6797
*CONN
*I inst_7375:ZN O
*I inst_2676:A2 I
*CAP
1 inst_7375:ZN 0.0169
2 net_2946:1 0.3418
3 net_2946:2 0.0277
4 net_2946:3 0.2232
5 inst_2676:A2 0.0700
*RES
2 inst_7375:ZN net_2946:1 0.3825
3 net_2946:1 net_2946:2 0.4916
4 net_2946:2 net_2946:3 0.0258
5 net_2946:3 inst_2676:A2 0.0722
*END

*D_NET TAUNET_2828 1.4340
*CONN
*I TAUGATE_3785:Z O
*I TAUGATE_2828:A I
*I inst_7846:A2 I
*I inst_1422:A2 I
*CAP
1 TAUGATE_3785:Z 0.0274
2 TAUNET_2828:1 0.0758
3 TAUGATE_2828:A 0.0730
4 TAUNET_2828:2 0.1555
5 inst_7846:A2 0.4347
6 TAUNET_2828:3 0.3163
7 inst_1422:A2 0.3515
*RES
2 TAUGATE_3785:Z TAUNET_2828:1 0.2996
3 TAUNET_2828:1 TAUGATE_2828:A 0.1500
4 TAUNET_2828:1 TAUNET_2828:2 0.2976
5 TAUNET_2828:2 inst_7846:A2 0.3531
6 TAUNET_2828:1 TAUNET_2828:3 0.2983
7 TAUNET_2828:3 inst_1422:A2 0.4269
*END

*D_NET net_1707 1.6831
*CONN
*I inst_6166:CO O
*I inst_7797:A2 I
*CAP
1 inst_6166:CO 0.0341
2 net_1707:1 0.3389
3 net_1707:2 0.4000
4 net_1707:3 0.0188
5 net_1707:4 0.4709
6 inst_7797:A2 0.4204
*RES
2 inst_6166:CO net_1707:1 0.0122
3 net_1707:1 net_1707:2 0.2688
4 net_1707:2 net_1707:3 0.0936
5 net_1707:3 net_1707:4 0.3051
6 net_1707:4 inst_7797:A2 0.1197
*END

*D_NET net_4397 0.8159
*CONN
*I inst_1465:ZN O
*I inst_6201:D I
*CAP
1 inst_1465:ZN 0.2210
2 net_4397:1 0.2798
3 inst_6201:D 0.3150
*RES
2 inst_1465:ZN net_4397:1 0.0137
3 net_4397:1 inst_6201:D 0.2108
*END

*D_NET net_4866 3.3078
*CONN
*I inst_7604:ZN O
*I inst_1914:B1 I
*I inst_1970:B1 I
*I inst_1974:B1 I
*I inst_1978:B1 I
*CAP
1 inst_7604:ZN 0.0161
2 net_4866:1 0.3729
3 net_4866:2 0.0610
4 net_4866:3 0.4010
5 inst_1974:B1 0.2910
6 net_4866:4 0.3618
7 net_4866:5 0.0820
8 net_4866:6 0.2174
9 net_4866:7 0.3638
10 inst_1970:B1 0.4097
11 net_4866:8 0.0910
12 net_4866:9 0.1278
13 inst_1914:B1 0.3093
14 net_4866:10 0.0044
15 inst_1978:B1 0.1986
*RES
2 inst_7604:ZN net_4866:1 0.3768
3 net_4866:1 net_4866:2 0.3083
4 net_4866:2 net_4866:3 0.1250
5 net_4866:3 inst_1974:B1 0.3526
6 net_4866:3 net_4866:4 0.2418
7 net_4866:4 net_4866:5 0.4080
8 net_4866:5 net_4866:6 0.3118
9 net_4866:6 net_4866:7 0.4981
10 net_4866:7 inst_1970:B1 0.3134
11 net_4866:7 net_4866:8 0.3342
12 net_4866:8 net_4866:9 0.2150
13 net_4866:9 inst_1914:B1 0.0109
14 net_4866:4 net_4866:10 0.0476
15 net_4866:10 inst_1978:B1 0.0521
*END

*D_NET net_6407 1.1336
*CONN
*I inst_6949:QN O
*I inst_5595:A I
*CAP
1 inst_6949:QN 0.0043
2 net_6407:1 0.4724
3 net_6407:2 0.2677
4 net_6407:3 0.2426
5 inst_5595:A 0.1466
*RES
2 inst_6949:QN net_6407:1 0.2784
3 net_6407:1 net_6407:2 0.2008
4 net_6407:2 net_6407:3 0.3776
5 net_6407:3 inst_5595:A 0.2937
*END

*D_NET net_2181 2.8174
*CONN
*I TAUGATE_3991:Z O
*I inst_7467:B1 I
*I inst_4235:A1 I
*CAP
1 TAUGATE_3991:Z 0.2822
2 net_2181:1 0.0309
3 net_2181:2 0.1138
4 net_2181:3 0.3809
5 net_2181:4 0.3567
6 net_2181:5 0.3242
7 inst_7467:B1 0.2336
8 net_2181:6 0.1297
9 net_2181:7 0.4791
10 net_2181:8 0.2417
11 inst_4235:A1 0.2444
*RES
2 TAUGATE_3991:Z net_2181:1 0.3863
3 net_2181:1 net_2181:2 0.2365
4 net_2181:2 net_2181:3 0.1037
5 net_2181:3 net_2181:4 0.3572
6 net_2181:4 net_2181:5 0.2211
7 net_2181:5 inst_7467:B1 0.2185
8 net_2181:3 net_2181:6 0.4262
9 net_2181:6 net_2181:7 0.3737
10 net_2181:7 net_2181:8 0.3015
11 net_2181:8 inst_4235:A1 0.1830
*END

*D_NET TAUNET_1437 0.7780
*CONN
*I TAUGATE_1250:Z O
*I TAUGATE_1437:A I
*CAP
1 TAUGATE_1250:Z 0.4053
2 TAUNET_1437:1 0.2362
3 TAUGATE_1437:A 0.1365
*RES
2 TAUGATE_1250:Z TAUNET_1437:1 0.0277
3 TAUNET_1437:1 TAUGATE_1437:A 0.4263
*END

*D_NET net_1166 2.1855
*CONN
*I inst_4125:ZN O
*I inst_4812:A I
*I inst_1742:B1 I
*CAP
1 inst_4125:ZN 0.1111
2 net_1166:1 0.0512
3 net_1166:2 0.1351
4 net_1166:3 0.0984
5 net_1166:4 0.0368
6 inst_1742:B1 0.4376
7 net_1166:5 0.3766
8 net_1166:6 0.0185
9 net_1166:7 0.3877
10 net_1166:8 0.1588
11 inst_4812:A 0.3738
*RES
2 inst_4125:ZN net_1166:1 0.1423
3 net_1166:1 net_1166:2 0.1283
4 net_1166:2 net_1166:3 0.1146
5 net_1166:3 net_1166:4 0.3234
6 net_1166:4 inst_1742:B1 0.4610
7 net_1166:3 net_1166:5 0.4556
8 net_1166:5 net_1166:6 0.1835
9 net_1166:6 net_1166:7 0.0020
10 net_1166:7 net_1166:8 0.2614
11 net_1166:8 inst_4812:A 0.3010
*END

*D_NET net_2169 2.4656
*CONN
*I inst_6594:QN O
*I inst_7470:B1 I
*I inst_4233:A1 I
*CAP
1 inst_6594:QN 0.4372
2 net_2169:1 0.1153
3 net_2169:2 0.3810
4 inst_7470:B1 0.1100
5 net_2169:3 0.2343
6 net_2169:4 0.0981
7 net_2169:5 0.3461
8 net_2169:6 0.2382
9 net_2169:7 0.4109
10 inst_4233:A1 0.0945
*RES
2 inst_6594:QN net_2169:1 0.1662
3 net_2169:1 net_2169:2 0.3178
4 net_2169:2 inst_7470:B1 0.2541
5 net_2169:1 net_2169:3 0.2326
6 net_2169:3 net_2169:4 0.0121
7 net_2169:4 net_2169:5 0.2674
8 net_2169:5 net_2169:6 0.2072
9 net_2169:6 net_2169:7 0.0414
10 net_2169:7 inst_4233:A1 0.2455
*END

*D_NET net_906 3.6387
*CONN
*I TAUGATE_2033:Z O
*I inst_4874:A I
*I inst_6165:A I
*I inst_4146:A1 I
*CAP
1 TAUGATE_2033:Z 0.0138
2 net_906:1 0.3131
3 net_906:2 0.4392
4 net_906:3 0.4048
5 net_906:4 0.0368
6 net_906:5 0.3283
7 inst_6165:A 0.2266
8 net_906:6 0.2966
9 net_906:7 0.3013
10 net_906:8 0.0758
11 inst_4874:A 0.0262
12 net_906:9 0.3805
13 net_906:10 0.2523
14 net_906:11 0.0497
15 inst_4146:A1 0.4938
*RES
2 TAUGATE_2033:Z net_906:1 0.4199
3 net_906:1 net_906:2 0.3736
4 net_906:2 net_906:3 0.3306
5 net_906:3 net_906:4 0.3042
6 net_906:4 net_906:5 0.1317
7 net_906:5 inst_6165:A 0.1481
8 net_906:3 net_906:6 0.3812
9 net_906:6 net_906:7 0.0656
10 net_906:7 net_906:8 0.1550
11 net_906:8 inst_4874:A 0.0047
12 net_906:3 net_906:9 0.3913
13 net_906:9 net_906:10 0.2131
14 net_906:10 net_906:11 0.3201
15 net_906:11 inst_4146:A1 0.0320
*END

*D_NET net_2256 3.8535
*CONN
*I inst_4903:ZN O
*I inst_49:B I
*I inst_84:B I
*I inst_1114:SE I
*CAP
1 inst_4903:ZN 0.3378
2 net_2256:1 0.2454
3 net_2256:2 0.4527
4 net_2256:3 0.2663
5 net_2256:4 0.3641
6 net_2256:5 0.1740
7 inst_84:B 0.2701
8 net_2256:6 0.0751
9 net_2256:7 0.1227
10 net_2256:8 0.0294
11 net_2256:9 0.0059
12 inst_49:B 0.3552
13 net_2256:10 0.3050
14 net_2256:11 0.3594
15 inst_1114:SE 0.4902
*RES
2 inst_4903:ZN net_2256:1 0.3351
3 net_2256:1 net_2256:2 0.4105
4 net_2256:2 net_2256:3 0.3004
5 net_2256:3 net_2256:4 0.3665
6 net_2256:4 net_2256:5 0.1341
7 net_2256:5 inst_84:B 0.0859
8 net_2256:2 net_2256:6 0.3839
9 net_2256:6 net_2256:7 0.1840
10 net_2256:7 net_2256:8 0.4010
11 net_2256:8 net_2256:9 0.3573
12 net_2256:9 inst_49:B 0.4559
13 net_2256:7 net_2256:10 0.4716
14 net_2256:10 net_2256:11 0.2112
15 net_2256:11 inst_1114:SE 0.1762
*END

*D_NET net_5159 1.5274
*CONN
*I inst_1909:ZN O
*I inst_6671:D I
*CAP
1 inst_1909:ZN 0.1660
2 net_5159:1 0.2908
3 net_5159:2 0.3318
4 net_5159:3 0.3308
5 inst_6671:D 0.4080
*RES
2 inst_1909:ZN net_5159:1 0.4669
3 net_5159:1 net_5159:2 0.1932
4 net_5159:2 net_5159:3 0.0675
5 net_5159:3 inst_6671:D 0.0053
*END

*D_NET net_3156 2.0370
*CONN
*I inst_2202:ZN O
*I inst_2198:A3 I
*CAP
1 inst_2202:ZN 0.0437
2 net_3156:1 0.3838
3 net_3156:2 0.2033
4 net_3156:3 0.3263
5 net_3156:4 0.4574
6 net_3156:5 0.4683
7 inst_2198:A3 0.1543
*RES
2 inst_2202:ZN net_3156:1 0.4873
3 net_3156:1 net_3156:2 0.1669
4 net_3156:2 net_3156:3 0.4800
5 net_3156:3 net_3156:4 0.4518
6 net_3156:4 net_3156:5 0.0570
7 net_3156:5 inst_2198:A3 0.4909
*END

*D_NET net_5253 2.7368
*CONN
*I inst_3226:ZN O
*I inst_1439:A1 I
*I inst_2974:A2 I
*CAP
1 inst_3226:ZN 0.5008
2 net_5253:1 0.2457
3 net_5253:2 0.4210
4 inst_1439:A1 0.2594
5 net_5253:3 0.2246
6 net_5253:4 0.3320
7 net_5253:5 0.3870
8 inst_2974:A2 0.3663
*RES
2 inst_3226:ZN net_5253:1 0.3565
3 net_5253:1 net_5253:2 0.4074
4 net_5253:2 inst_1439:A1 0.4309
5 net_5253:2 net_5253:3 0.1512
6 net_5253:3 net_5253:4 0.1368
7 net_5253:4 net_5253:5 0.4493
8 net_5253:5 inst_2974:A2 0.4663
*END

*D_NET net_822 1.5003
*CONN
*I inst_4922:ZN O
*I inst_1587:A1 I
*CAP
1 inst_4922:ZN 0.1873
2 net_822:1 0.3589
3 net_822:2 0.4697
4 inst_1587:A1 0.4844
*RES
2 inst_4922:ZN net_822:1 0.0401
3 net_822:1 net_822:2 0.2861
4 net_822:2 inst_1587:A1 0.1883
*END

*D_NET net_264 2.5392
*CONN
*I inst_6839:QN O
*I inst_7835:A2 I
*I inst_2139:B1 I
*I inst_2468:A2 I
*CAP
1 inst_6839:QN 0.0604
2 net_264:1 0.2921
3 net_264:2 0.4162
4 net_264:3 0.1285
5 net_264:4 0.0491
6 inst_2139:B1 0.3511
7 net_264:5 0.2080
8 inst_7835:A2 0.3529
9 net_264:6 0.4026
10 inst_2468:A2 0.2784
*RES
2 inst_6839:QN net_264:1 0.2111
3 net_264:1 net_264:2 0.3010
4 net_264:2 net_264:3 0.1515
5 net_264:3 net_264:4 0.0492
6 net_264:4 inst_2139:B1 0.2707
7 net_264:2 net_264:5 0.4886
8 net_264:5 inst_7835:A2 0.3648
9 net_264:5 net_264:6 0.1803
10 net_264:6 inst_2468:A2 0.0882
*END

*D_NET TAUNET_1860 3.8997
*CONN
*I inst_4747:ZN O
*I TAUGATE_1860:A I
*I inst_2695:A2 I
*I inst_1381:A2 I
*CAP
1 inst_4747:ZN 0.4780
2 TAUNET_1860:1 0.1182
3 TAUNET_1860:2 0.2614
4 TAUNET_1860:3 0.1530
5 TAUNET_1860:4 0.2582
6 inst_2695:A2 0.4484
7 TAUNET_1860:5 0.4880
8 TAUNET_1860:6 0.4169
9 TAUNET_1860:7 0.3167
10 TAUNET_1860:8 0.3376
11 TAUGATE_1860:A 0.1073
12 TAUNET_1860:9 0.1251
13 TAUNET_1860:10 0.0048
14 TAUNET_1860:11 0.3126
15 TAUNET_1860:12 0.0195
16 inst_1381:A2 0.0541
*RES
2 inst_4747:ZN TAUNET_1860:1 0.0762
3 TAUNET_1860:1 TAUNET_1860:2 0.1986
4 TAUNET_1860:2 TAUNET_1860:3 0.3922
5 TAUNET_1860:3 TAUNET_1860:4 0.3950
6 TAUNET_1860:4 inst_2695:A2 0.2666
7 TAUNET_1860:3 TAUNET_1860:5 0.3579
8 TAUNET_1860:5 TAUNET_1860:6 0.1300
9 TAUNET_1860:6 TAUNET_1860:7 0.3795
10 TAUNET_1860:7 TAUNET_1860:8 0.2362
11 TAUNET_1860:8 TAUGATE_1860:A 0.1908
12 TAUNET_1860:4 TAUNET_1860:9 0.3700
13 TAUNET_1860:9 TAUNET_1860:10 0.3260
14 TAUNET_1860:10 TAUNET_1860:11 0.3466
15 TAUNET_1860:11 TAUNET_1860:12 0.4948
16 TAUNET_1860:12 inst_1381:A2 0.4038
*END

*D_NET net_671 1.9191
*CONN
*I inst_1429:ZN O
*I inst_2503:A2 I
*I inst_5853:A I
*CAP
1 inst_1429:ZN 0.0063
2 net_671:1 0.0915
3 net_671:2 0.4619
4 net_671:3 0.1065
5 net_671:4 0.1990
6 net_671:5 0.2576
7 inst_2503:A2 0.0690
8 net_671:6 0.3226
9 net_671:7 0.1282
10 inst_5853:A 0.2766
*RES
2 inst_1429:ZN net_671:1 0.2231
3 net_671:1 net_671:2 0.2934
4 net_671:2 net_671:3 0.0661
5 net_671:3 net_671:4 0.0281
6 net_671:4 net_671:5 0.1011
7 net_671:5 inst_2503:A2 0.2539
8 net_671:1 net_671:6 0.4045
9 net_671:6 net_671:7 0.4267
10 net_671:7 inst_5853:A 0.4596
*END

*D_NET net_1633 1.8134
*CONN
*I inst_3713:ZN O
*I inst_2727:A3 I
*CAP
1 inst_3713:ZN 0.4724
2 net_1633:1 0.0407
3 net_1633:2 0.4130
4 net_1633:3 0.3462
5 net_1633:4 0.0714
6 net_1633:5 0.2110
7 inst_2727:A3 0.2588
*RES
2 inst_3713:ZN net_1633:1 0.0339
3 net_1633:1 net_1633:2 0.0519
4 net_1633:2 net_1633:3 0.4874
5 net_1633:3 net_1633:4 0.0374
6 net_1633:4 net_1633:5 0.2489
7 net_1633:5 inst_2727:A3 0.2584
*END

*D_NET net_7084 2.0240
*CONN
*I inst_1201:Q O
*I inst_7270:B1 I
*I inst_1201:SI I
*CAP
1 inst_1201:Q 0.4333
2 net_7084:1 0.3416
3 inst_7270:B1 0.4099
4 net_7084:2 0.2746
5 net_7084:3 0.4228
6 inst_1201:SI 0.1417
*RES
2 inst_1201:Q net_7084:1 0.1540
3 net_7084:1 inst_7270:B1 0.0325
4 net_7084:1 net_7084:2 0.3754
5 net_7084:2 net_7084:3 0.2016
6 net_7084:3 inst_1201:SI 0.0068
*END

*D_NET net_2231 1.7534
*CONN
*I inst_5795:ZN O
*I inst_7797:A3 I
*CAP
1 inst_5795:ZN 0.4220
2 net_2231:1 0.0580
3 net_2231:2 0.3810
4 net_2231:3 0.2195
5 net_2231:4 0.2042
6 net_2231:5 0.2030
7 inst_7797:A3 0.2656
*RES
2 inst_5795:ZN net_2231:1 0.4413
3 net_2231:1 net_2231:2 0.1336
4 net_2231:2 net_2231:3 0.4042
5 net_2231:3 net_2231:4 0.0451
6 net_2231:4 net_2231:5 0.2391
7 net_2231:5 inst_7797:A3 0.0321
*END

*D_NET net_5117 1.0327
*CONN
*I inst_1928:ZN O
*I inst_6553:D I
*CAP
1 inst_1928:ZN 0.0857
2 net_5117:1 0.2245
3 net_5117:2 0.4797
4 net_5117:3 0.0551
5 inst_6553:D 0.1877
*RES
2 inst_1928:ZN net_5117:1 0.0973
3 net_5117:1 net_5117:2 0.4235
4 net_5117:2 net_5117:3 0.1903
5 net_5117:3 inst_6553:D 0.2143
*END

*D_NET net_4798 1.8683
*CONN
*I inst_1656:ZN O
*I inst_7126:D I
*CAP
1 inst_1656:ZN 0.2421
2 net_4798:1 0.2497
3 net_4798:2 0.2766
4 net_4798:3 0.3086
5 net_4798:4 0.2353
6 net_4798:5 0.4838
7 inst_7126:D 0.0722
*RES
2 inst_1656:ZN net_4798:1 0.3539
3 net_4798:1 net_4798:2 0.3446
4 net_4798:2 net_4798:3 0.0192
5 net_4798:3 net_4798:4 0.1341
6 net_4798:4 net_4798:5 0.4054
7 net_4798:5 inst_7126:D 0.3681
*END

*D_NET net_3029 1.9028
*CONN
*I inst_4717:ZN O
*I inst_6246:D I
*I inst_2282:A1 I
*CAP
1 inst_4717:ZN 0.1561
2 net_3029:1 0.0224
3 net_3029:2 0.3933
4 inst_2282:A1 0.2244
5 net_3029:3 0.4918
6 net_3029:4 0.3583
7 net_3029:5 0.0251
8 net_3029:6 0.0071
9 inst_6246:D 0.2242
*RES
2 inst_4717:ZN net_3029:1 0.4154
3 net_3029:1 net_3029:2 0.1374
4 net_3029:2 inst_2282:A1 0.1713
5 net_3029:1 net_3029:3 0.4834
6 net_3029:3 net_3029:4 0.4589
7 net_3029:4 net_3029:5 0.0098
8 net_3029:5 net_3029:6 0.3264
9 net_3029:6 inst_6246:D 0.2846
*END

*D_NET net_6997 3.3299
*CONN
*I inst_836:Q O
*I inst_836:D I
*I inst_7680:B1 I
*CAP
1 inst_836:Q 0.1185
2 net_6997:1 0.3703
3 net_6997:2 0.0365
4 net_6997:3 0.4409
5 net_6997:4 0.4335
6 net_6997:5 0.3158
7 inst_7680:B1 0.2513
8 net_6997:6 0.1489
9 net_6997:7 0.3442
10 net_6997:8 0.1815
11 net_6997:9 0.2112
12 net_6997:10 0.3238
13 inst_836:D 0.1536
*RES
2 inst_836:Q net_6997:1 0.4798
3 net_6997:1 net_6997:2 0.1640
4 net_6997:2 net_6997:3 0.1778
5 net_6997:3 net_6997:4 0.3155
6 net_6997:4 net_6997:5 0.4909
7 net_6997:5 inst_7680:B1 0.2285
8 net_6997:3 net_6997:6 0.2744