*SPEF "IEEE 1481-1998"
*DESIGN "changes"
*DATE "Tue Dec 02 18:55:09 2014"
*VENDOR "TAU 2015 Contest"
*PROGRAM "Benchmark Parasitic Generator"
*VERSION "0.0"
*DESIGN_FLOW "NETLIST_TYPE_VERILOG"
*DIVIDER /
*DELIMITER :
*BUS_DELIMITER [ ]
*T_UNIT 1 PS
*C_UNIT 1 FF
*R_UNIT 1 KOHM
*L_UNIT 1 UH

*D_NET TAUNET_4 1.7439
*CONN
*I inst_6616:QN O
*I TAUGATE_4:A I
*CAP
1 inst_6616:QN 0.2611
2 TAUNET_4:1 0.4098
3 TAUNET_4:2 0.5009
4 TAUNET_4:3 0.2843
5 TAUGATE_4:A 0.2878
*RES
2 inst_6616:QN TAUNET_4:1 0.1659
3 TAUNET_4:1 TAUNET_4:2 0.2742
4 TAUNET_4:2 TAUNET_4:3 0.3494
5 TAUNET_4:3 TAUGATE_4:A 0.1485
*END

*D_NET net_2593 1.3760
*CONN
*I TAUGATE_3:Z O
*I inst_7095:D I
*CAP
1 TAUGATE_3:Z 0.2110
2 net_2593:1 0.3070
3 net_2593:2 0.3583
4 net_2593:3 0.1395
5 net_2593:4 0.0646
6 net_2593:5 0.0794
7 inst_7095:D 0.2161
*RES
2 TAUGATE_3:Z net_2593:1 0.1614
3 net_2593:1 net_2593:2 0.3312
4 net_2593:2 net_2593:3 0.3755
5 net_2593:3 net_2593:4 0.4644
6 net_2593:4 net_2593:5 0.4559
7 net_2593:5 inst_7095:D 0.4050
*END

*D_NET TAUNET_2 0.4849
*CONN
*I inst_5303:ZN O
*I TAUGATE_2:A I
*CAP
1 inst_5303:ZN 0.1670
2 TAUNET_2:1 0.2440
3 TAUNET_2:2 0.0332
4 TAUGATE_2:A 0.0406
*RES
2 inst_5303:ZN TAUNET_2:1 0.2732
3 TAUNET_2:1 TAUNET_2:2 0.0073
4 TAUNET_2:2 TAUGATE_2:A 0.1308
*END

*D_NET net_1877 3.2076
*CONN
*I TAUGATE_2:Z O
*I inst_3212:A1 I
*I inst_7542:B1 I
*CAP
1 TAUGATE_2:Z 0.2909
2 net_1877:1 0.0740
3 net_1877:2 0.4871
4 net_1877:3 0.4951
5 net_1877:4 0.4125
6 inst_3212:A1 0.0565
7 net_1877:5 0.4708
8 net_1877:6 0.3056
9 net_1877:7 0.3464
10 net_1877:8 0.0305
11 inst_7542:B1 0.2383
*RES
2 TAUGATE_2:Z net_1877:1 0.1285
3 net_1877:1 net_1877:2 0.0292
4 net_1877:2 net_1877:3 0.2926
5 net_1877:3 net_1877:4 0.4507
6 net_1877:4 inst_3212:A1 0.3356
7 net_1877:4 net_1877:5 0.4020
8 net_1877:5 net_1877:6 0.2529
9 net_1877:6 net_1877:7 0.2665
10 net_1877:7 net_1877:8 0.4354
11 net_1877:8 inst_7542:B1 0.1977
*END

*D_NET TAUNET_3 1.4247
*CONN
*I inst_2487:ZN O
*I TAUGATE_3:A I
*CAP
1 inst_2487:ZN 0.3276
2 TAUNET_3:1 0.3292
3 TAUNET_3:2 0.0716
4 TAUNET_3:3 0.2236
5 TAUNET_3:4 0.1922
6 TAUGATE_3:A 0.2805
*RES
2 inst_2487:ZN TAUNET_3:1 0.1322
3 TAUNET_3:1 TAUNET_3:2 0.1905
4 TAUNET_3:2 TAUNET_3:3 0.4017
5 TAUNET_3:3 TAUNET_3:4 0.4680
6 TAUNET_3:4 TAUGATE_3:A 0.2976
*END

*D_NET net_7577 1.4553
*CONN
*I TAUGATE_4:Z O
*I inst_5523:A I
*CAP
1 TAUGATE_4:Z 0.2927
2 net_7577:1 0.2211
3 net_7577:2 0.1955
4 net_7577:3 0.1868
5 net_7577:4 0.4889
6 inst_5523:A 0.0703
*RES
2 TAUGATE_4:Z net_7577:1 0.3298
3 net_7577:1 net_7577:2 0.4131
4 net_7577:2 net_7577:3 0.3310
5 net_7577:3 net_7577:4 0.2621
6 net_7577:4 inst_5523:A 0.4792
*END

