*SPEF "IEEE 1481-1998"
*DESIGN "changes"
*DATE "Tue Dec 02 18:55:23 2014"
*VENDOR "TAU 2015 Contest"
*PROGRAM "Benchmark Parasitic Generator"
*VERSION "0.0"
*DESIGN_FLOW "NETLIST_TYPE_VERILOG"
*DIVIDER /
*DELIMITER :
*BUS_DELIMITER [ ]
*T_UNIT 1 PS
*C_UNIT 1 FF
*R_UNIT 1 KOHM
*L_UNIT 1 UH

*D_NET TAUNET_1292 3.0173
*CONN
*I TAUGATE_1471:Z O
*I TAUGATE_1292:A I
*I inst_1803:B1 I
*CAP
1 TAUGATE_1471:Z 0.2611
2 TAUNET_1292:1 0.4098
3 TAUNET_1292:2 0.5009
4 TAUNET_1292:3 0.2843
5 TAUGATE_1292:A 0.2878
6 TAUNET_1292:4 0.4685
7 TAUNET_1292:5 0.3070
8 TAUNET_1292:6 0.3583
9 inst_1803:B1 0.1395
*RES
2 TAUGATE_1471:Z TAUNET_1292:1 0.1659
3 TAUNET_1292:1 TAUNET_1292:2 0.2742
4 TAUNET_1292:2 TAUNET_1292:3 0.3494
5 TAUNET_1292:3 TAUGATE_1292:A 0.1485
6 TAUNET_1292:3 TAUNET_1292:4 0.0646
7 TAUNET_1292:4 TAUNET_1292:5 0.0794
8 TAUNET_1292:5 TAUNET_1292:6 0.2161
9 TAUNET_1292:6 inst_1803:B1 0.1614
*END

*D_NET net_501 4.7351
*CONN
*I inst_5598:ZN O
*I inst_1587:B1 I
*I inst_7354:B1 I
*I inst_4193:A1 I
*CAP
1 inst_5598:ZN 0.3755
2 net_501:1 0.4559
3 net_501:2 0.4050
4 net_501:3 0.0154
5 net_501:4 0.1670
6 net_501:5 0.1555
7 inst_7354:B1 0.2440
8 net_501:6 0.0740
9 net_501:7 0.4871
10 net_501:8 0.4951
11 net_501:9 0.4125
12 inst_1587:B1 0.0565
13 net_501:10 0.4708
14 net_501:11 0.3056
15 net_501:12 0.3464
16 net_501:13 0.0305
17 inst_4193:A1 0.2383
*RES
2 inst_5598:ZN net_501:1 0.0332
3 net_501:1 net_501:2 0.0406
4 net_501:2 net_501:3 0.2732
5 net_501:3 net_501:4 0.0073
6 net_501:4 net_501:5 0.1308
7 net_501:5 inst_7354:B1 0.1374
8 net_501:4 net_501:6 0.1285
9 net_501:6 net_501:7 0.0292
10 net_501:7 net_501:8 0.2926
11 net_501:8 net_501:9 0.4507
12 net_501:9 inst_1587:B1 0.3356
13 net_501:8 net_501:10 0.4020
14 net_501:10 net_501:11 0.2529
15 net_501:11 net_501:12 0.2665
16 net_501:12 net_501:13 0.4354
17 net_501:13 inst_4193:A1 0.1977
*END

*D_NET net_3841 2.4224
*CONN
*I inst_2280:ZN O
*I inst_2881:A1 I
*I inst_7809:A2 I
*CAP
1 inst_2280:ZN 0.3276
2 net_3841:1 0.3292
3 net_3841:2 0.0716
4 net_3841:3 0.2236
5 net_3841:4 0.1922
6 inst_2881:A1 0.2805
7 net_3841:5 0.3943
8 net_3841:6 0.2211
9 net_3841:7 0.1955
10 inst_7809:A2 0.1868
*RES
2 inst_2280:ZN net_3841:1 0.1322
3 net_3841:1 net_3841:2 0.1905
4 net_3841:2 net_3841:3 0.4017
5 net_3841:3 net_3841:4 0.4680
6 net_3841:4 inst_2881:A1 0.2976
7 net_3841:2 net_3841:5 0.4889
8 net_3841:5 net_3841:6 0.0703
9 net_3841:6 net_3841:7 0.3298
10 net_3841:7 inst_7809:A2 0.4131
*END

*D_NET net_976 1.4221
*CONN
*I inst_4076:ZN O
*I inst_2749:A2 I
*CAP
1 inst_4076:ZN 0.2621
2 net_976:1 0.1808
3 net_976:2 0.0717
4 net_976:3 0.3990
5 net_976:4 0.4035
6 net_976:5 0.0219
7 inst_2749:A2 0.0830
*RES
2 inst_4076:ZN net_976:1 0.4539
3 net_976:1 net_976:2 0.1250
4 net_976:2 net_976:3 0.3196
5 net_976:3 net_976:4 0.4976
6 net_976:4 net_976:5 0.3591
7 net_976:5 inst_2749:A2 0.2780
*END

*D_NET net_1050 9.6539
*CONN
*I TAUGATE_2040:Z O
*I inst_2569:A2 I
*I inst_2567:A3 I
*I inst_5806:A I
*I inst_2702:A2 I
*I inst_2501:A2 I
*I inst_2703:A2 I
*I inst_2566:A1 I
*I inst_1386:A1 I
*CAP
1 TAUGATE_2040:Z 0.1593
2 net_1050:1 0.3498
3 net_1050:2 0.4055
4 net_1050:3 0.4519
5 net_1050:4 0.4658
6 net_1050:5 0.3690
7 inst_2702:A2 0.4019
8 net_1050:6 0.0376
9 net_1050:7 0.0972
10 net_1050:8 0.3594
11 net_1050:9 0.0525
12 net_1050:10 0.3248
13 inst_2567:A3 0.2597
14 net_1050:11 0.4443
15 net_1050:12 0.1288
16 inst_5806:A 0.3022
17 net_1050:13 0.4814
18 net_1050:14 0.1341
19 net_1050:15 0.3915
20 net_1050:16 0.0282
21 inst_2569:A2 0.3089
22 net_1050:17 0.3643
23 net_1050:18 0.2288
24 net_1050:19 0.0666
25 inst_2501:A2 0.3854
26 net_1050:20 0.2154
27 net_1050:21 0.4921
28 net_1050:22 0.1648
29 inst_2703:A2 0.1855
30 net_1050:23 0.1494
31 net_1050:24 0.3290
32 net_1050:25 0.1620
33 net_1050:26 0.0029
34 net_1050:27 0.2883
35 inst_2566:A1 0.1903
36 net_1050:28 0.4104
37 inst_1386:A1 0.0649
*RES
2 TAUGATE_2040:Z net_1050:1 0.0632
3 net_1050:1 net_1050:2 0.2503
4 net_1050:2 net_1050:3 0.4700
5 net_1050:3 net_1050:4 0.3789
6 net_1050:4 net_1050:5 0.3545
7 net_1050:5 inst_2702:A2 0.1033
8 net_1050:2 net_1050:6 0.1267
9 net_1050:6 net_1050:7 0.3840
10 net_1050:7 net_1050:8 0.2434
11 net_1050:8 net_1050:9 0.3726
12 net_1050:9 net_1050:10 0.2980
13 net_1050:10 inst_2567:A3 0.2454
14 net_1050:4 net_1050:11 0.1405
15 net_1050:11 net_1050:12 0.0668
16 net_1050:12 inst_5806:A 0.3699
17 net_1050:11 net_1050:13 0.0253
18 net_1050:13 net_1050:14 0.3105
19 net_1050:14 net_1050:15 0.1881
20 net_1050:15 net_1050:16 0.2034
21 net_1050:16 inst_2569:A2 0.1592
22 net_1050:11 net_1050:17 0.3580
23 net_1050:17 net_1050:18 0.3774
24 net_1050:18 net_1050:19 0.2731
25 net_1050:19 inst_2501:A2 0.1525
26 net_1050:2 net_1050:20 0.0112
27 net_1050:20 net_1050:21 0.3530
28 net_1050:21 net_1050:22 0.1128
29 net_1050:22 inst_2703:A2 0.2239
30 net_1050:5 net_1050:23 0.4381
31 net_1050:23 net_1050:24 0.3484
32 net_1050:24 net_1050:25 0.0801
33 net_1050:25 net_1050:26 0.1392
34 net_1050:26 net_1050:27 0.1891
35 net_1050:27 inst_2566:A1 0.0464
36 net_1050:2 net_1050:28 0.0510
37 net_1050:28 inst_1386:A1 0.1600
*END

