*SPEF "IEEE 1481-1998"
*DESIGN "changes"
*DATE "Tue Dec 02 18:55:09 2014"
*VENDOR "TAU 2015 Contest"
*PROGRAM "Benchmark Parasitic Generator"
*VERSION "0.0"
*DESIGN_FLOW "NETLIST_TYPE_VERILOG"
*DIVIDER /
*DELIMITER :
*BUS_DELIMITER [ ]
*T_UNIT 1 PS
*C_UNIT 1 FF
*R_UNIT 1 KOHM
*L_UNIT 1 UH

*D_NET net_5865 1.7439
*CONN
*I TAUGATE_28:Z O
*I inst_1633:A1 I
*CAP
1 TAUGATE_28:Z 0.2611
2 net_5865:1 0.4098
3 net_5865:2 0.5009
4 net_5865:3 0.2843
5 inst_1633:A1 0.2878
*RES
2 TAUGATE_28:Z net_5865:1 0.1659
3 net_5865:1 net_5865:2 0.2742
4 net_5865:2 net_5865:3 0.3494
5 net_5865:3 inst_1633:A1 0.1485
*END

*D_NET TAUNET_13 1.3760
*CONN
*I inst_5065:ZN O
*I TAUGATE_13:A I
*CAP
1 inst_5065:ZN 0.2110
2 TAUNET_13:1 0.3070
3 TAUNET_13:2 0.3583
4 TAUNET_13:3 0.1395
5 TAUNET_13:4 0.0646
6 TAUNET_13:5 0.0794
7 TAUGATE_13:A 0.2161
*RES
2 inst_5065:ZN TAUNET_13:1 0.1614
3 TAUNET_13:1 TAUNET_13:2 0.3312
4 TAUNET_13:2 TAUNET_13:3 0.3755
5 TAUNET_13:3 TAUNET_13:4 0.4644
6 TAUNET_13:4 TAUNET_13:5 0.4559
7 TAUNET_13:5 TAUGATE_13:A 0.4050
*END

*D_NET TAUNET_12 0.4849
*CONN
*I inst_5483:ZN O
*I TAUGATE_12:A I
*CAP
1 inst_5483:ZN 0.1670
2 TAUNET_12:1 0.2440
3 TAUNET_12:2 0.0332
4 TAUGATE_12:A 0.0406
*RES
2 inst_5483:ZN TAUNET_12:1 0.2732
3 TAUNET_12:1 TAUNET_12:2 0.0073
4 TAUNET_12:2 TAUGATE_12:A 0.1308
*END

*D_NET net_2193 3.2076
*CONN
*I TAUGATE_25:Z O
*I inst_4227:A1 I
*I inst_7464:B1 I
*CAP
1 TAUGATE_25:Z 0.2909
2 net_2193:1 0.0740
3 net_2193:2 0.4871
4 net_2193:3 0.4951
5 net_2193:4 0.4125
6 inst_4227:A1 0.0565
7 net_2193:5 0.4708
8 net_2193:6 0.3056
9 net_2193:7 0.3464
10 net_2193:8 0.0305
11 inst_7464:B1 0.2383
*RES
2 TAUGATE_25:Z net_2193:1 0.1285
3 net_2193:1 net_2193:2 0.0292
4 net_2193:2 net_2193:3 0.2926
5 net_2193:3 net_2193:4 0.4507
6 net_2193:4 inst_4227:A1 0.3356
7 net_2193:4 net_2193:5 0.4020
8 net_2193:5 net_2193:6 0.2529
9 net_2193:6 net_2193:7 0.2665
10 net_2193:7 net_2193:8 0.4354
11 net_2193:8 inst_7464:B1 0.1977
*END

*D_NET x806 1.4247
*CONN
*I TAUGATE_43:Z O
*I inst_6947:D I
*CAP
1 TAUGATE_43:Z 0.3276
2 x806:1 0.3292
3 x806:2 0.0716
4 x806:3 0.2236
5 x806:4 0.1922
6 inst_6947:D 0.2805
*RES
2 TAUGATE_43:Z x806:1 0.1322
3 x806:1 x806:2 0.1905
4 x806:2 x806:3 0.4017
5 x806:3 x806:4 0.4680
6 x806:4 inst_6947:D 0.2976
*END

*D_NET net_2443 1.4553
*CONN
*I TAUGATE_33:Z O
*I inst_1636:B1 I
*CAP
1 TAUGATE_33:Z 0.2927
2 net_2443:1 0.2211
3 net_2443:2 0.1955
4 net_2443:3 0.1868
5 net_2443:4 0.4889
6 inst_1636:B1 0.0703
*RES
2 TAUGATE_33:Z net_2443:1 0.3298
3 net_2443:1 net_2443:2 0.4131
4 net_2443:2 net_2443:3 0.3310
5 net_2443:3 net_2443:4 0.2621
6 net_2443:4 inst_1636:B1 0.4792
*END

*D_NET net_3153 1.1591
*CONN
*I TAUGATE_26:Z O
*I inst_4494:A I
*CAP
1 TAUGATE_26:Z 0.0717
2 net_3153:1 0.4035
3 net_3153:2 0.0219
4 net_3153:3 0.0830
5 net_3153:4 0.4539
6 inst_4494:A 0.1250
*RES
2 TAUGATE_26:Z net_3153:1 0.3196
3 net_3153:1 net_3153:2 0.4976
4 net_3153:2 net_3153:3 0.3591
5 net_3153:3 net_3153:4 0.2780
6 net_3153:4 inst_4494:A 0.2022
*END

*D_NET net_2995 2.5322
*CONN
*I TAUGATE_30:Z O
*I inst_5759:A I
*CAP
1 TAUGATE_30:Z 0.4382
2 net_2995:1 0.4055
3 net_2995:2 0.4519
4 net_2995:3 0.4658
5 net_2995:4 0.3690
6 inst_5759:A 0.4019
*RES
2 TAUGATE_30:Z net_2995:1 0.0632
3 net_2995:1 net_2995:2 0.2503
4 net_2995:2 net_2995:3 0.4700
5 net_2995:3 net_2995:4 0.3789
6 net_2995:4 inst_5759:A 0.3545
*END

*D_NET net_4110 2.9151
*CONN
*I TAUGATE_42:Z O
*I inst_2014:B1 I
*I inst_1498:B2 I
*I inst_1496:A2 I
*CAP
1 TAUGATE_42:Z 0.4316
2 net_4110:1 0.4734
3 net_4110:2 0.0376
4 inst_2014:B1 0.0972
5 net_4110:3 0.3840
6 net_4110:4 0.2434
7 inst_1498:B2 0.3726
8 net_4110:5 0.4443
9 net_4110:6 0.1288
10 inst_1496:A2 0.3022
*RES
2 TAUGATE_42:Z net_4110:1 0.3594
3 net_4110:1 net_4110:2 0.0525
4 net_4110:2 inst_2014:B1 0.3248
5 net_4110:2 net_4110:3 0.2980
6 net_4110:3 net_4110:4 0.2454
7 net_4110:4 inst_1498:B2 0.4670
8 net_4110:2 net_4110:5 0.1405
9 net_4110:5 net_4110:6 0.0668
10 net_4110:6 inst_1496:A2 0.3699
*END

*D_NET TAUNET_35 1.5989
*CONN
*I inst_5440:ZN O
*I TAUGATE_35:A I
*CAP
1 inst_5440:ZN 0.4004
2 TAUNET_35:1 0.1341
3 TAUNET_35:2 0.3915
4 TAUNET_35:3 0.0282
5 TAUNET_35:4 0.3089
6 TAUNET_35:5 0.0253
7 TAUGATE_35:A 0.3105
*RES
2 inst_5440:ZN TAUNET_35:1 0.1881
3 TAUNET_35:1 TAUNET_35:2 0.2034
4 TAUNET_35:2 TAUNET_35:3 0.1592
5 TAUNET_35:3 TAUNET_35:4 0.3147
6 TAUNET_35:4 TAUNET_35:5 0.2761
7 TAUNET_35:5 TAUGATE_35:A 0.3643
*END

*D_NET net_7041 2.0181
*CONN
*I TAUGATE_18:Z O
*I inst_3748:A1 I
*I inst_856:SI I
*CAP
1 TAUGATE_18:Z 0.0666
2 net_7041:1 0.3580
3 net_7041:2 0.3774
4 net_7041:3 0.2731
5 net_7041:4 0.1525
6 inst_3748:A1 0.0518
7 net_7041:5 0.2239
8 net_7041:6 0.0917
9 inst_856:SI 0.4230
*RES
2 TAUGATE_18:Z net_7041:1 0.2548
3 net_7041:1 net_7041:2 0.2154
4 net_7041:2 net_7041:3 0.4921
5 net_7041:3 net_7041:4 0.1648
6 net_7041:4 inst_3748:A1 0.1855
7 net_7041:4 net_7041:5 0.1494
8 net_7041:5 net_7041:6 0.3290
9 net_7041:6 inst_856:SI 0.1620
*END

*D_NET net_594 1.1549
*CONN
*I TAUGATE_11:Z O
*I inst_1579:B1 I
*CAP
1 TAUGATE_11:Z 0.2883
2 net_594:1 0.4381
3 net_594:2 0.3484
4 inst_1579:B1 0.0801
*RES
2 TAUGATE_11:Z net_594:1 0.1392
3 net_594:1 net_594:2 0.1891
4 net_594:2 inst_1579:B1 0.0464
*END

*D_NET x681 1.0649
*CONN
*I TAUGATE_22:Z O
*P x681 O
*CAP
1 TAUGATE_22:Z 0.0279
2 x681:1 0.0649
3 x681:2 0.0510
4 x681:3 0.1600
5 x681:4 0.1748
6 x681:5 0.4787
7 x681 0.1076
*RES
2 TAUGATE_22:Z x681:1 0.4606
3 x681:1 x681:2 0.3388
4 x681:2 x681:3 0.4657
5 x681:3 x681:4 0.3595
6 x681:4 x681:5 0.2471
7 x681:5 x681 0.0832
*END

*D_NET net_1858 1.8158
*CONN
*I TAUGATE_12:Z O
*I inst_3215:A1 I
*I inst_7548:B1 I
*CAP
1 TAUGATE_12:Z 0.3736
2 net_1858:1 0.3644
3 inst_3215:A1 0.0829
4 net_1858:2 0.1165
5 net_1858:3 0.0986
6 net_1858:4 0.2243
7 net_1858:5 0.1286
8 inst_7548:B1 0.4269
*RES
2 TAUGATE_12:Z net_1858:1 0.1977
3 net_1858:1 inst_3215:A1 0.4694
4 net_1858:1 net_1858:2 0.2482
5 net_1858:2 net_1858:3 0.2195
6 net_1858:3 net_1858:4 0.1533
7 net_1858:4 net_1858:5 0.4091
8 net_1858:5 inst_7548:B1 0.2613
*END

*D_NET TAUNET_46 1.5043
*CONN
*I inst_271:Q O
*I TAUGATE_46:A I
*CAP
1 inst_271:Q 0.1869
2 TAUNET_46:1 0.3047
3 TAUNET_46:2 0.1200
4 TAUNET_46:3 0.4969
5 TAUNET_46:4 0.1210
6 TAUNET_46:5 0.1733
7 TAUGATE_46:A 0.1014
*RES
2 inst_271:Q TAUNET_46:1 0.0283
3 TAUNET_46:1 TAUNET_46:2 0.2763
4 TAUNET_46:2 TAUNET_46:3 0.2945
5 TAUNET_46:3 TAUNET_46:4 0.3177
6 TAUNET_46:4 TAUNET_46:5 0.2101
7 TAUNET_46:5 TAUGATE_46:A 0.3390
*END

*D_NET net_6266 1.1506
*CONN
*I TAUGATE_50:Z O
*I inst_187:SI I
*CAP
1 TAUGATE_50:Z 0.3404
2 net_6266:1 0.3617
3 net_6266:2 0.0856
4 inst_187:SI 0.3629
*RES
2 TAUGATE_50:Z net_6266:1 0.2821
3 net_6266:1 net_6266:2 0.3900
4 net_6266:2 inst_187:SI 0.0557
*END

*D_NET net_3761 2.4217
*CONN
*I TAUGATE_52:Z O
*I inst_2404:A1 I
*I inst_1658:C1 I
*CAP
1 TAUGATE_52:Z 0.2716
2 net_3761:1 0.1079
3 net_3761:2 0.3323
4 net_3761:3 0.2907
5 net_3761:4 0.0362
6 inst_2404:A1 0.4966
7 net_3761:5 0.4602
8 inst_1658:C1 0.4262
*RES
2 TAUGATE_52:Z net_3761:1 0.4101
3 net_3761:1 net_3761:2 0.2702
4 net_3761:2 net_3761:3 0.2135
5 net_3761:3 net_3761:4 0.0419
6 net_3761:4 inst_2404:A1 0.2773
7 net_3761:1 net_3761:5 0.2009
8 net_3761:5 inst_1658:C1 0.3114
*END

*D_NET net_2186 2.6571
*CONN
*I TAUGATE_35:Z O
*I inst_3130:A1 I
*I inst_7466:A1 I
*CAP
1 TAUGATE_35:Z 0.3972
2 net_2186:1 0.2443
3 net_2186:2 0.2458
4 net_2186:3 0.3734
5 net_2186:4 0.1567
6 net_2186:5 0.1247
7 inst_7466:A1 0.2439
8 net_2186:6 0.4026
9 inst_3130:A1 0.4684
*RES
2 TAUGATE_35:Z net_2186:1 0.2588
3 net_2186:1 net_2186:2 0.4474
4 net_2186:2 net_2186:3 0.3528
5 net_2186:3 net_2186:4 0.0472
6 net_2186:4 net_2186:5 0.4436
7 net_2186:5 inst_7466:A1 0.1981
8 net_2186:4 net_2186:6 0.2490
9 net_2186:6 inst_3130:A1 0.0579
*END

*D_NET TAUNET_24 2.1415
*CONN
*I inst_6807:Q O
*I TAUGATE_24:A I
*CAP
1 inst_6807:Q 0.2861
2 TAUNET_24:1 0.3875
3 TAUNET_24:2 0.4796
4 TAUNET_24:3 0.3740
5 TAUNET_24:4 0.1554
6 TAUNET_24:5 0.0209
7 TAUGATE_24:A 0.4380
*RES
2 inst_6807:Q TAUNET_24:1 0.4130
3 TAUNET_24:1 TAUNET_24:2 0.4990
4 TAUNET_24:2 TAUNET_24:3 0.2134
5 TAUNET_24:3 TAUNET_24:4 0.1115
6 TAUNET_24:4 TAUNET_24:5 0.4947
7 TAUNET_24:5 TAUGATE_24:A 0.3666
*END

*D_NET TAUNET_16 1.7795
*CONN
*I inst_1881:ZN O
*I TAUGATE_16:A I
*CAP
1 inst_1881:ZN 0.4464
2 TAUNET_16:1 0.2969
3 TAUNET_16:2 0.3091
4 TAUNET_16:3 0.5006
5 TAUGATE_16:A 0.2264
*RES
2 inst_1881:ZN TAUNET_16:1 0.3973
3 TAUNET_16:1 TAUNET_16:2 0.2044
4 TAUNET_16:2 TAUNET_16:3 0.1531
5 TAUNET_16:3 TAUGATE_16:A 0.3886
*END

*D_NET net_1286 1.3806
*CONN
*I TAUGATE_17:Z O
*I inst_3626:A1 I
*CAP
1 TAUGATE_17:Z 0.2468
2 net_1286:1 0.3652
3 net_1286:2 0.1857
4 net_1286:3 0.0562
5 net_1286:4 0.0882
6 inst_3626:A1 0.4386
*RES
2 TAUGATE_17:Z net_1286:1 0.2715
3 net_1286:1 net_1286:2 0.0199
4 net_1286:2 net_1286:3 0.4145
5 net_1286:3 net_1286:4 0.1459
6 net_1286:4 inst_3626:A1 0.1130
*END

*D_NET TAUNET_31 0.5758
*CONN
*I inst_1854:ZN O
*I TAUGATE_31:A I
*CAP
1 inst_1854:ZN 0.1939
2 TAUNET_31:1 0.0212
3 TAUNET_31:2 0.1417
4 TAUGATE_31:A 0.2190
*RES
2 inst_1854:ZN TAUNET_31:1 0.4826
3 TAUNET_31:1 TAUNET_31:2 0.1138
4 TAUNET_31:2 TAUGATE_31:A 0.4033
*END

*D_NET TAUNET_25 0.6715
*CONN
*I inst_6000:ZN O
*I TAUGATE_25:A I
*CAP
1 inst_6000:ZN 0.2540
2 TAUNET_25:1 0.2388
3 TAUGATE_25:A 0.1787
*RES
2 inst_6000:ZN TAUNET_25:1 0.3603
3 TAUNET_25:1 TAUGATE_25:A 0.0603
*END

*D_NET net_1525 1.0565
*CONN
*I TAUGATE_21:Z O
*I inst_2739:A3 I
*CAP
1 TAUGATE_21:Z 0.3102
2 net_1525:1 0.2473
3 net_1525:2 0.0055
4 inst_2739:A3 0.4935
*RES
2 TAUGATE_21:Z net_1525:1 0.2412
3 net_1525:1 net_1525:2 0.3995
4 net_1525:2 inst_2739:A3 0.4441
*END

*D_NET net_1316 0.5340
*CONN
*I TAUGATE_36:Z O
*I inst_3601:A1 I
*CAP
1 TAUGATE_36:Z 0.0848
2 net_1316:1 0.0274
3 inst_3601:A1 0.4218
*RES
2 TAUGATE_36:Z net_1316:1 0.2061
3 net_1316:1 inst_3601:A1 0.2110
*END

*D_NET TAUNET_27 0.9202
*CONN
*I inst_7430:ZN O
*I TAUGATE_27:A I
*CAP
1 inst_7430:ZN 0.3985
2 TAUNET_27:1 0.0725
3 TAUGATE_27:A 0.4492
*RES
2 inst_7430:ZN TAUNET_27:1 0.3124
3 TAUNET_27:1 TAUGATE_27:A 0.3685
*END

*D_NET TAUNET_28 1.0045
*CONN
*I inst_119:ZN O
*I TAUGATE_28:A I
*CAP
1 inst_119:ZN 0.1801
2 TAUNET_28:1 0.3420
3 TAUNET_28:2 0.0965
4 TAUNET_28:3 0.2555
5 TAUGATE_28:A 0.1304
*RES
2 inst_119:ZN TAUNET_28:1 0.3675
3 TAUNET_28:1 TAUNET_28:2 0.4634
4 TAUNET_28:2 TAUNET_28:3 0.2869
5 TAUNET_28:3 TAUGATE_28:A 0.1646
*END

*D_NET TAUNET_57 0.8697
*CONN
*I inst_1381:ZN O
*I TAUGATE_57:A I
*CAP
1 inst_1381:ZN 0.0327
2 TAUNET_57:1 0.3721
3 TAUGATE_57:A 0.4648
*RES
2 inst_1381:ZN TAUNET_57:1 0.2376
3 TAUNET_57:1 TAUGATE_57:A 0.1146
*END

*D_NET net_6967 1.0898
*CONN
*I TAUGATE_14:Z O
*I inst_485:D I
*I inst_3884:A1 I
*CAP
1 TAUGATE_14:Z 0.1439
2 net_6967:1 0.2502
3 inst_3884:A1 0.2506
4 net_6967:2 0.2747
5 inst_485:D 0.1704
*RES
2 TAUGATE_14:Z net_6967:1 0.4486
3 net_6967:1 inst_3884:A1 0.0641
4 net_6967:1 net_6967:2 0.2303
5 net_6967:2 inst_485:D 0.0121
*END

*D_NET TAUNET_37 0.6221
*CONN
*I inst_3052:ZN O
*I TAUGATE_37:A I
*CAP
1 inst_3052:ZN 0.0267
2 TAUNET_37:1 0.1079
3 TAUNET_37:2 0.3621
4 TAUGATE_37:A 0.1254
*RES
2 inst_3052:ZN TAUNET_37:1 0.3490
3 TAUNET_37:1 TAUNET_37:2 0.4751
4 TAUNET_37:2 TAUGATE_37:A 0.3195
*END

*D_NET TAUNET_32 1.2894
*CONN
*I inst_3234:ZN O
*I TAUGATE_32:A I
*CAP
1 inst_3234:ZN 0.2505
2 TAUNET_32:1 0.3990
3 TAUNET_32:2 0.0185
4 TAUNET_32:3 0.3777
5 TAUGATE_32:A 0.2437
*RES
2 inst_3234:ZN TAUNET_32:1 0.3641
3 TAUNET_32:1 TAUNET_32:2 0.1411
4 TAUNET_32:2 TAUNET_32:3 0.2452
5 TAUNET_32:3 TAUGATE_32:A 0.2723
*END

*D_NET TAUNET_38 0.3445
*CONN
*I inst_2883:ZN O
*I TAUGATE_38:A I
*CAP
1 inst_2883:ZN 0.2449
2 TAUNET_38:1 0.0917
3 TAUGATE_38:A 0.0078
*RES
2 inst_2883:ZN TAUNET_38:1 0.0227
3 TAUNET_38:1 TAUGATE_38:A 0.0264
*END

*D_NET net_3925 2.6384
*CONN
*I TAUGATE_38:Z O
*I inst_4483:A I
*I inst_4661:A I
*CAP
1 TAUGATE_38:Z 0.1906
2 net_3925:1 0.0937
3 net_3925:2 0.2944
4 inst_4483:A 0.3987
5 net_3925:3 0.1157
6 net_3925:4 0.1901
7 net_3925:5 0.2138
8 net_3925:6 0.5008
9 net_3925:7 0.2979
10 inst_4661:A 0.3428
*RES
2 TAUGATE_38:Z net_3925:1 0.0209
3 net_3925:1 net_3925:2 0.1182
4 net_3925:2 inst_4483:A 0.1067
5 net_3925:2 net_3925:3 0.2325
6 net_3925:3 net_3925:4 0.2733
7 net_3925:4 net_3925:5 0.1266
8 net_3925:5 net_3925:6 0.3814
9 net_3925:6 net_3925:7 0.1363
10 net_3925:7 inst_4661:A 0.3277
*END

*D_NET TAUNET_40 1.7680
*CONN
*I inst_2048:ZN O
*I TAUGATE_40:A I
*CAP
1 inst_2048:ZN 0.4503
2 TAUNET_40:1 0.1603
3 TAUNET_40:2 0.4423
4 TAUNET_40:3 0.1159
5 TAUNET_40:4 0.4527
6 TAUGATE_40:A 0.1465
*RES
2 inst_2048:ZN TAUNET_40:1 0.1463
3 TAUNET_40:1 TAUNET_40:2 0.4621
4 TAUNET_40:2 TAUNET_40:3 0.4065
5 TAUNET_40:3 TAUNET_40:4 0.0227
6 TAUNET_40:4 TAUGATE_40:A 0.2236
*END

*D_NET net_5347 5.4073
*CONN
*I TAUGATE_39:Z O
*I inst_1831:B1 I
*I inst_1815:B1 I
*I inst_1915:B1 I
*I inst_1847:B1 I
*CAP
1 TAUGATE_39:Z 0.0715
2 net_5347:1 0.1861
3 net_5347:2 0.4367
4 inst_1847:B1 0.3452
5 net_5347:3 0.4978
6 net_5347:4 0.2563
7 net_5347:5 0.2595
8 net_5347:6 0.2603
9 net_5347:7 0.2874
10 inst_1815:B1 0.3072
11 net_5347:8 0.4796
12 net_5347:9 0.3806
13 net_5347:10 0.4946
14 inst_1915:B1 0.4608
15 net_5347:11 0.4103
16 net_5347:12 0.0845
17 inst_1831:B1 0.1888
*RES
2 TAUGATE_39:Z net_5347:1 0.0313
3 net_5347:1 net_5347:2 0.1217
4 net_5347:2 inst_1847:B1 0.0111
5 net_5347:1 net_5347:3 0.2768
6 net_5347:3 net_5347:4 0.1679
7 net_5347:4 net_5347:5 0.2053
8 net_5347:5 net_5347:6 0.2140
9 net_5347:6 net_5347:7 0.3306
10 net_5347:7 inst_1815:B1 0.1569
11 net_5347:4 net_5347:8 0.4692
12 net_5347:8 net_5347:9 0.4766
13 net_5347:9 net_5347:10 0.0589
14 net_5347:10 inst_1915:B1 0.0962
15 net_5347:5 net_5347:11 0.1436
16 net_5347:11 net_5347:12 0.1762
17 net_5347:12 inst_1831:B1 0.4748
*END

*D_NET net_497 1.1069
*CONN
*I TAUGATE_10:Z O
*I inst_1609:B1 I
*CAP
1 TAUGATE_10:Z 0.0407
2 net_497:1 0.0491
3 net_497:2 0.4137
4 net_497:3 0.3046
5 inst_1609:B1 0.2987
*RES
2 TAUGATE_10:Z net_497:1 0.2640
3 net_497:1 net_497:2 0.1831
4 net_497:2 net_497:3 0.4110
5 net_497:3 inst_1609:B1 0.0191
*END

*D_NET TAUNET_20 1.9101
*CONN
*I inst_4648:ZN O
*I TAUGATE_20:A I
*CAP
1 inst_4648:ZN 0.4300
2 TAUNET_20:1 0.0787
3 TAUNET_20:2 0.2007
4 TAUNET_20:3 0.2971
5 TAUNET_20:4 0.4025
6 TAUGATE_20:A 0.5010
*RES
2 inst_4648:ZN TAUNET_20:1 0.3538
3 TAUNET_20:1 TAUNET_20:2 0.4649
4 TAUNET_20:2 TAUNET_20:3 0.0482
5 TAUNET_20:3 TAUNET_20:4 0.1062
6 TAUNET_20:4 TAUGATE_20:A 0.2963
*END

*D_NET x420 1.3534
*CONN
*I TAUGATE_24:Z O
*P x420 O
*CAP
1 TAUGATE_24:Z 0.2002
2 x420:1 0.3761
3 x420:2 0.0616
4 x420:3 0.4298
5 x420 0.2857
*RES
2 TAUGATE_24:Z x420:1 0.2634
3 x420:1 x420:2 0.0470
4 x420:2 x420:3 0.0745
5 x420:3 x420 0.1738
*END

*D_NET net_2940 0.9060
*CONN
*I TAUGATE_19:Z O
*I inst_2681:A2 I
*CAP
1 TAUGATE_19:Z 0.4556
2 net_2940:1 0.0036
3 net_2940:2 0.1731
4 inst_2681:A2 0.2737
*RES
2 TAUGATE_19:Z net_2940:1 0.3095
3 net_2940:1 net_2940:2 0.4895
4 net_2940:2 inst_2681:A2 0.4033
*END

*D_NET net_5205 1.7738
*CONN
*I TAUGATE_16:Z O
*I inst_6647:D I
*CAP
1 TAUGATE_16:Z 0.3461
2 net_5205:1 0.0418
3 net_5205:2 0.3671
4 net_5205:3 0.3815
5 net_5205:4 0.1458
6 inst_6647:D 0.4915
*RES
2 TAUGATE_16:Z net_5205:1 0.0683
3 net_5205:1 net_5205:2 0.2135
4 net_5205:2 net_5205:3 0.4484
5 net_5205:3 net_5205:4 0.1379
6 net_5205:4 inst_6647:D 0.1139
*END

*D_NET TAUNET_14 1.0254
*CONN
*I inst_485:Q O
*I TAUGATE_14:A I
*CAP
1 inst_485:Q 0.0861
2 TAUNET_14:1 0.4806
3 TAUNET_14:2 0.3473
4 TAUGATE_14:A 0.1114
*RES
2 inst_485:Q TAUNET_14:1 0.0198
3 TAUNET_14:1 TAUNET_14:2 0.2366
4 TAUNET_14:2 TAUGATE_14:A 0.1100
*END

*D_NET net_4955 1.2760
*CONN
*I TAUGATE_37:Z O
*I inst_2948:A1 I
*CAP
1 TAUGATE_37:Z 0.3290
2 net_4955:1 0.4236
3 net_4955:2 0.3328
4 inst_2948:A1 0.1906
*RES
2 TAUGATE_37:Z net_4955:1 0.5003
3 net_4955:1 net_4955:2 0.4347
4 net_4955:2 inst_2948:A1 0.3044
*END

*D_NET net_716 2.5714
*CONN
*I TAUGATE_13:Z O
*I inst_4964:A I
*I inst_4144:A2 I
*CAP
1 TAUGATE_13:Z 0.0096
2 net_716:1 0.2377
3 net_716:2 0.2571
4 net_716:3 0.3610
5 net_716:4 0.0042
6 net_716:5 0.2690
7 inst_4964:A 0.3841
8 net_716:6 0.0621
9 net_716:7 0.2122
10 net_716:8 0.2034
11 net_716:9 0.1253
12 net_716:10 0.2112
13 inst_4144:A2 0.2343
*RES
2 TAUGATE_13:Z net_716:1 0.3400
3 net_716:1 net_716:2 0.2352
4 net_716:2 net_716:3 0.3112
5 net_716:3 net_716:4 0.1345
6 net_716:4 net_716:5 0.4134
7 net_716:5 inst_4964:A 0.0741
8 net_716:5 net_716:6 0.1106
9 net_716:6 net_716:7 0.0283
10 net_716:7 net_716:8 0.2644
11 net_716:8 net_716:9 0.3395
12 net_716:9 net_716:10 0.4160
13 net_716:10 inst_4144:A2 0.1311
*END

*D_NET TAUNET_49 0.5652
*CONN
*I inst_3693:ZN O
*I TAUGATE_49:A I
*CAP
1 inst_3693:ZN 0.0535
2 TAUNET_49:1 0.2939
3 TAUGATE_49:A 0.2177
*RES
2 inst_3693:ZN TAUNET_49:1 0.0520
3 TAUNET_49:1 TAUGATE_49:A 0.1787
*END

*D_NET net_2872 5.1382
*CONN
*I TAUGATE_59:Z O
*I inst_7609:A1 I
*I inst_7610:A1 I
*I inst_4759:A I
*I inst_7418:A1 I
*I inst_7394:B1 I
*CAP
1 TAUGATE_59:Z 0.2308
2 net_2872:1 0.4154
3 net_2872:2 0.4205
4 inst_7418:A1 0.1921
5 net_2872:3 0.3943
6 net_2872:4 0.0450
7 net_2872:5 0.3586
8 inst_7610:A1 0.1804
9 net_2872:6 0.0277
10 net_2872:7 0.2232
11 net_2872:8 0.0700
12 net_2872:9 0.3825
13 inst_4759:A 0.4916
14 net_2872:10 0.2996
15 inst_7609:A1 0.1500
16 net_2872:11 0.2976
17 net_2872:12 0.3531
18 net_2872:13 0.0316
19 net_2872:14 0.1823
20 net_2872:15 0.0755
21 inst_7394:B1 0.3163
*RES
2 TAUGATE_59:Z net_2872:1 0.3303
3 net_2872:1 net_2872:2 0.0500
4 net_2872:2 inst_7418:A1 0.3450
5 net_2872:2 net_2872:3 0.2132
6 net_2872:3 net_2872:4 0.3448
7 net_2872:4 net_2872:5 0.2539
8 net_2872:5 inst_7610:A1 0.0169
9 net_2872:3 net_2872:6 0.0258
10 net_2872:6 net_2872:7 0.0722
11 net_2872:7 net_2872:8 0.0268
12 net_2872:8 net_2872:9 0.0274
13 net_2872:9 inst_4759:A 0.0955
14 net_2872:1 net_2872:10 0.2720
15 net_2872:10 inst_7609:A1 0.0605
16 net_2872:3 net_2872:11 0.3515
17 net_2872:11 net_2872:12 0.2983
18 net_2872:12 net_2872:13 0.4269
19 net_2872:13 net_2872:14 0.0493
20 net_2872:14 net_2872:15 0.0341
21 net_2872:15 inst_7394:B1 0.3020
*END

*D_NET net_7582 1.2913
*CONN
*I TAUGATE_54:Z O
*I inst_5316:A I
*CAP
1 TAUGATE_54:Z 0.4000
2 net_7582:1 0.4709
3 inst_5316:A 0.4204
*RES
2 TAUGATE_54:Z net_7582:1 0.0122
3 net_7582:1 inst_5316:A 0.2688
*END

*D_NET net_4109 3.4091
*CONN
*I TAUGATE_34:Z O
*I inst_2012:B1 I
*I inst_1506:A2 I
*I inst_1496:B2 I
*CAP
1 TAUGATE_34:Z 0.3051
2 net_4109:1 0.2956
3 net_4109:2 0.2210
4 inst_2012:B1 0.0970
5 net_4109:3 0.0161
6 net_4109:4 0.2047
7 net_4109:5 0.3729
8 net_4109:6 0.0610
9 inst_1506:A2 0.4010
10 net_4109:7 0.3618
11 net_4109:8 0.0820
12 net_4109:9 0.2174
13 net_4109:10 0.3638
14 inst_1496:B2 0.4097
*RES
2 TAUGATE_34:Z net_4109:1 0.2798
3 net_4109:1 net_4109:2 0.3150
4 net_4109:2 inst_2012:B1 0.0137
5 net_4109:1 net_4109:3 0.2910
6 net_4109:3 net_4109:4 0.3768
7 net_4109:4 net_4109:5 0.3083
8 net_4109:5 net_4109:6 0.1250
9 net_4109:6 inst_1506:A2 0.3526
10 net_4109:5 net_4109:7 0.2418
11 net_4109:7 net_4109:8 0.4080
12 net_4109:8 net_4109:9 0.3118
13 net_4109:9 net_4109:10 0.4981
14 net_4109:10 inst_1496:B2 0.3134
*END

*D_NET TAUNET_50 0.5767
*CONN
*I inst_188:Q O
*I TAUGATE_50:A I
*CAP
1 inst_188:Q 0.1396
2 TAUNET_50:1 0.1278
3 TAUGATE_50:A 0.3093
*RES
2 inst_188:Q TAUNET_50:1 0.3342
3 TAUNET_50:1 TAUGATE_50:A 0.2150
*END

*D_NET net_1750 0.5049
*CONN
*I TAUGATE_49:Z O
*I inst_3553:A1 I
*CAP
1 TAUGATE_49:Z 0.1830
2 net_1750:1 0.0712
3 net_1750:2 0.0044
4 net_1750:3 0.1986
5 inst_3553:A1 0.0476
*RES
2 TAUGATE_49:Z net_1750:1 0.0521
3 net_1750:1 net_1750:2 0.0546
4 net_1750:2 net_1750:3 0.0043
5 net_1750:3 inst_3553:A1 0.2737
*END

*D_NET TAUNET_23 1.2711
*CONN
*I inst_3106:ZN O
*I TAUGATE_23:A I
*CAP
1 inst_3106:ZN 0.2677
2 TAUNET_23:1 0.1466
3 TAUNET_23:2 0.2784
4 TAUNET_23:3 0.2008
5 TAUGATE_23:A 0.3776
*RES
2 inst_3106:ZN TAUNET_23:1 0.2937
3 TAUNET_23:1 TAUNET_23:2 0.0093
4 TAUNET_23:2 TAUNET_23:3 0.2822
5 TAUNET_23:3 TAUGATE_23:A 0.4311
*END

*D_NET TAUNET_39 1.6512
*CONN
*I inst_7606:ZN O
*I TAUGATE_39:A I
*CAP
1 inst_7606:ZN 0.1138
2 TAUNET_39:1 0.3567
3 TAUNET_39:2 0.3242
4 TAUNET_39:3 0.2336
5 TAUNET_39:4 0.3863
6 TAUGATE_39:A 0.2365
*RES
2 inst_7606:ZN TAUNET_39:1 0.1037
3 TAUNET_39:1 TAUNET_39:2 0.3572
4 TAUNET_39:2 TAUNET_39:3 0.2211
5 TAUNET_39:3 TAUNET_39:4 0.2185
6 TAUNET_39:4 TAUGATE_39:A 0.2266
*END

*D_NET TAUNET_51 1.9002
*CONN
*I inst_7698:ZN O
*I TAUGATE_51:A I
*CAP
1 inst_7698:ZN 0.1297
2 TAUNET_51:1 0.2417
3 TAUNET_51:2 0.2444
4 TAUNET_51:3 0.4262
5 TAUNET_51:4 0.3737
6 TAUNET_51:5 0.3015
7 TAUGATE_51:A 0.1830
*RES
2 inst_7698:ZN TAUNET_51:1 0.3035
3 TAUNET_51:1 TAUNET_51:2 0.4053
4 TAUNET_51:2 TAUNET_51:3 0.0863
5 TAUNET_51:3 TAUNET_51:4 0.2362
6 TAUNET_51:4 TAUNET_51:5 0.1365
7 TAUNET_51:5 TAUGATE_51:A 0.0277
*END

*D_NET TAUNET_19 0.8486
*CONN
*I inst_7381:ZN O
*I TAUGATE_19:A I
*CAP
1 inst_7381:ZN 0.2912
2 TAUNET_19:1 0.3711
3 TAUNET_19:2 0.0512
4 TAUGATE_19:A 0.1351
*RES
2 inst_7381:ZN TAUNET_19:1 0.0984
3 TAUNET_19:1 TAUNET_19:2 0.0368
4 TAUNET_19:2 TAUGATE_19:A 0.4376
*END

*D_NET TAUNET_34 1.3959
*CONN
*I inst_7770:ZN O
*I TAUGATE_34:A I
*CAP
1 inst_7770:ZN 0.1283
2 TAUNET_34:1 0.3234
3 TAUNET_34:2 0.4610
4 TAUGATE_34:A 0.4832
*RES
2 inst_7770:ZN TAUNET_34:1 0.2776
3 TAUNET_34:1 TAUNET_34:2 0.3781
4 TAUNET_34:2 TAUGATE_34:A 0.3766
*END

*D_NET TAUNET_54 1.4006
*CONN
*I inst_6621:QN O
*I TAUGATE_54:A I
*CAP
1 inst_6621:QN 0.3877
2 TAUNET_54:1 0.3738
3 TAUNET_54:2 0.4556
4 TAUGATE_54:A 0.1835
*RES
2 inst_6621:QN TAUNET_54:1 0.0020
3 TAUNET_54:1 TAUNET_54:2 0.2614
4 TAUNET_54:2 TAUGATE_54:A 0.3010
*END

*D_NET net_4114 2.4656
*CONN
*I TAUGATE_51:Z O
*I inst_1443:A1 I
*I inst_1493:A2 I
*CAP
1 TAUGATE_51:Z 0.4372
2 net_4114:1 0.1153
3 net_4114:2 0.3810
4 inst_1443:A1 0.1100
5 net_4114:3 0.2343
6 net_4114:4 0.0981
7 net_4114:5 0.3461
8 net_4114:6 0.2382
9 net_4114:7 0.4109
10 inst_1493:A2 0.0945
*RES
2 TAUGATE_51:Z net_4114:1 0.1662
3 net_4114:1 net_4114:2 0.3178
4 net_4114:2 inst_1443:A1 0.2541
5 net_4114:1 net_4114:3 0.2326
6 net_4114:3 net_4114:4 0.0121
7 net_4114:4 net_4114:5 0.2674
8 net_4114:5 net_4114:6 0.2072
9 net_4114:6 net_4114:7 0.0414
10 net_4114:7 inst_1493:A2 0.2455
*END

*D_NET net_5264 1.7627
*CONN
*I TAUGATE_31:Z O
*I inst_6623:D I
*CAP
1 TAUGATE_31:Z 0.0138
2 net_5264:1 0.3131
3 net_5264:2 0.4392
4 net_5264:3 0.4048
5 net_5264:4 0.0368
6 net_5264:5 0.3283
7 inst_6623:D 0.2266
*RES
2 TAUGATE_31:Z net_5264:1 0.4199
3 net_5264:1 net_5264:2 0.3736
4 net_5264:2 net_5264:3 0.3306
5 net_5264:3 net_5264:4 0.3042
6 net_5264:4 net_5264:5 0.1317
7 net_5264:5 inst_6623:D 0.1481
*END

*D_NET net_4165 1.0046
*CONN
*I TAUGATE_20:Z O
*I inst_1330:SI I
*CAP
1 TAUGATE_20:Z 0.2201
2 net_4165:1 0.3013
3 net_4165:2 0.0758
4 net_4165:3 0.0262
5 inst_1330:SI 0.3812
*RES
2 TAUGATE_20:Z net_4165:1 0.0656
3 net_4165:1 net_4165:2 0.1550
4 net_4165:2 net_4165:3 0.0047
5 net_4165:3 inst_1330:SI 0.1418
*END

*D_NET TAUNET_44 1.5283
*CONN
*I inst_2922:ZN O
*I TAUGATE_44:A I
*CAP
1 inst_2922:ZN 0.3805
2 TAUNET_44:1 0.0497
3 TAUNET_44:2 0.4938
4 TAUNET_44:3 0.3913
5 TAUGATE_44:A 0.2131
*RES
2 inst_2922:ZN TAUNET_44:1 0.3201
3 TAUNET_44:1 TAUNET_44:2 0.0320
4 TAUNET_44:2 TAUNET_44:3 0.2786
5 TAUNET_44:3 TAUGATE_44:A 0.3378
*END

*D_NET TAUNET_43 2.0655
*CONN
*P x806 I
*I TAUGATE_43:A I
*CAP
1 x806 0.2454
2 TAUNET_43:1 0.2663
3 TAUNET_43:2 0.3641
4 TAUNET_43:3 0.1740
5 TAUNET_43:4 0.2701
6 TAUNET_43:5 0.3351
7 TAUGATE_43:A 0.4105
*RES
2 x806 TAUNET_43:1 0.3004
3 TAUNET_43:1 TAUNET_43:2 0.3665
4 TAUNET_43:2 TAUNET_43:3 0.1341
5 TAUNET_43:3 TAUNET_43:4 0.0859
6 TAUNET_43:4 TAUNET_43:5 0.1706
7 TAUNET_43:5 TAUGATE_43:A 0.3812
*END

*D_NET TAUNET_56 0.4838
*CONN
*I inst_4006:ZN O
*I TAUGATE_56:A I
*CAP
1 inst_4006:ZN 0.1227
2 TAUNET_56:1 0.0059
3 TAUGATE_56:A 0.3552
*RES
2 inst_4006:ZN TAUNET_56:1 0.3839
3 TAUNET_56:1 TAUGATE_56:A 0.1840
*END

*D_NET TAUNET_55 2.5126
*CONN
*I inst_2648:ZN O
*I TAUGATE_55:A I
*CAP
1 inst_2648:ZN 0.3573
2 TAUNET_55:1 0.3575
3 TAUNET_55:2 0.1715
4 TAUNET_55:3 0.3050
5 TAUNET_55:4 0.3594
6 TAUNET_55:5 0.4902
7 TAUGATE_55:A 0.4716
*RES
2 inst_2648:ZN TAUNET_55:1 0.2112
3 TAUNET_55:1 TAUNET_55:2 0.1762
4 TAUNET_55:2 TAUNET_55:3 0.1166
5 TAUNET_55:3 TAUNET_55:4 0.1660
6 TAUNET_55:4 TAUNET_55:5 0.2177
7 TAUNET_55:5 TAUGATE_55:A 0.2908
*END

*D_NET TAUNET_11 1.2533
*CONN
*I inst_5123:ZN O
*I TAUGATE_11:A I
*CAP
1 inst_5123:ZN 0.3308
2 TAUNET_11:1 0.4669
3 TAUNET_11:2 0.1932
4 TAUNET_11:3 0.0675
5 TAUNET_11:4 0.0053
6 TAUNET_11:5 0.1459
7 TAUGATE_11:A 0.0437
*RES
2 inst_5123:ZN TAUNET_11:1 0.4598
3 TAUNET_11:1 TAUNET_11:2 0.3838
4 TAUNET_11:2 TAUNET_11:3 0.2033
5 TAUNET_11:3 TAUNET_11:4 0.3263
6 TAUNET_11:4 TAUNET_11:5 0.4574
7 TAUNET_11:5 TAUGATE_11:A 0.4683
*END

*D_NET TAUNET_33 1.4761
*CONN
*I inst_5784:ZN O
*I TAUGATE_33:A I
*CAP
1 inst_5784:ZN 0.4873
2 TAUNET_33:1 0.4800
3 TAUNET_33:2 0.4518
4 TAUGATE_33:A 0.0570
*RES
2 inst_5784:ZN TAUNET_33:1 0.4909
3 TAUNET_33:1 TAUNET_33:2 0.0572
4 TAUNET_33:2 TAUGATE_33:A 0.5008
*END

*D_NET net_4452 2.4403
*CONN
*I TAUGATE_40:Z O
*I inst_2246:A2 I
*CAP
1 TAUGATE_40:Z 0.2457
2 net_4452:1 0.2594
3 net_4452:2 0.3565
4 net_4452:3 0.4074
5 net_4452:4 0.4309
6 net_4452:5 0.4474
7 inst_2246:A2 0.2931
*RES
2 TAUGATE_40:Z net_4452:1 0.2848
3 net_4452:1 net_4452:2 0.2246
4 net_4452:2 net_4452:3 0.3320
5 net_4452:3 net_4452:4 0.3870
6 net_4452:4 net_4452:5 0.3663
7 net_4452:5 inst_2246:A2 0.1512
*END

*D_NET net_6250 2.3961
*CONN
*I TAUGATE_47:Z O
*I inst_163:SI I
*CAP
1 TAUGATE_47:Z 0.4493
2 net_6250:1 0.2866
3 net_6250:2 0.1873
4 net_6250:3 0.1599
5 net_6250:4 0.3589
6 net_6250:5 0.4697
7 inst_163:SI 0.4844
*RES
2 TAUGATE_47:Z net_6250:1 0.0401
3 net_6250:1 net_6250:2 0.2861
4 net_6250:2 net_6250:3 0.1883
5 net_6250:3 net_6250:4 0.3075
6 net_6250:4 net_6250:5 0.0604
7 net_6250:5 inst_163:SI 0.3908
*END

*D_NET TAUNET_22 1.0274
*CONN
*I inst_6796:Q O
*I TAUGATE_22:A I
*CAP
1 inst_6796:Q 0.4162
2 TAUNET_22:1 0.0491
3 TAUNET_22:2 0.3511
4 TAUGATE_22:A 0.2111
*RES
2 inst_6796:Q TAUNET_22:1 0.3010
3 TAUNET_22:1 TAUNET_22:2 0.1515
4 TAUNET_22:2 TAUGATE_22:A 0.0492
*END

*D_NET TAUNET_41 1.1227
*CONN
*I inst_6165:S O
*I TAUGATE_41:A I
*CAP
1 inst_6165:S 0.0711
2 TAUNET_41:1 0.0021
3 TAUNET_41:2 0.2080
4 TAUNET_41:3 0.3529
5 TAUGATE_41:A 0.4886
*RES
2 inst_6165:S TAUNET_41:1 0.3648
3 TAUNET_41:1 TAUNET_41:2 0.4404
4 TAUNET_41:2 TAUNET_41:3 0.3187
5 TAUNET_41:3 TAUGATE_41:A 0.4272
*END

*D_NET net_6158 1.4415
*CONN
*I TAUGATE_15:Z O
*I inst_5526:A I
*CAP
1 TAUGATE_15:Z 0.4026
2 net_6158:1 0.1803
3 net_6158:2 0.0882
4 net_6158:3 0.2924
5 inst_5526:A 0.4780
*RES
2 TAUGATE_15:Z net_6158:1 0.3510
3 net_6158:1 net_6158:2 0.1182
4 net_6158:2 net_6158:3 0.2614
5 net_6158:3 inst_5526:A 0.1530
*END

*D_NET TAUNET_30 1.0392
*CONN
*I inst_7360:ZN O
*I TAUGATE_30:A I
*CAP
1 inst_7360:ZN 0.4484
2 TAUNET_30:1 0.1986
3 TAUGATE_30:A 0.3922
*RES
2 inst_7360:ZN TAUNET_30:1 0.3950
3 TAUNET_30:1 TAUGATE_30:A 0.2666
*END

*D_NET TAUNET_58 2.0823
*CONN
*I inst_7484:ZN O
*I TAUGATE_58:A I
*CAP
1 inst_7484:ZN 0.4671
2 TAUNET_58:1 0.3936
3 TAUNET_58:2 0.4880
4 TAUNET_58:3 0.4169
5 TAUGATE_58:A 0.3167
*RES
2 inst_7484:ZN TAUNET_58:1 0.3376
3 TAUNET_58:1 TAUNET_58:2 0.1073
4 TAUNET_58:2 TAUNET_58:3 0.3579
5 TAUNET_58:3 TAUGATE_58:A 0.1300
*END

*D_NET net_1578 0.8732
*CONN
*I TAUGATE_29:Z O
*I inst_2720:A3 I
*CAP
1 TAUGATE_29:Z 0.2362
2 net_1578:1 0.1996
3 net_1578:2 0.3123
4 inst_2720:A3 0.1251
*RES
2 TAUGATE_29:Z net_1578:1 0.0048
3 net_1578:1 net_1578:2 0.3126
4 net_1578:2 inst_2720:A3 0.0195
*END

*D_NET net_1710 1.8169
*CONN
*I TAUGATE_41:Z O
*I inst_1630:A1 I
*CAP
1 TAUGATE_41:Z 0.3700
2 net_1710:1 0.3466
3 net_1710:2 0.4948
4 net_1710:3 0.4038
5 net_1710:4 0.1954
6 inst_1630:A1 0.0063
*RES
2 TAUGATE_41:Z net_1710:1 0.4904
3 net_1710:1 net_1710:2 0.0915
4 net_1710:2 net_1710:3 0.4619
5 net_1710:3 net_1710:4 0.1065
6 net_1710:4 inst_1630:A1 0.1990
*END

*D_NET net_4895 0.5577
*CONN
*I TAUGATE_23:Z O
*I inst_2962:A2 I
*CAP
1 TAUGATE_23:Z 0.0690
2 net_4895:1 0.2934
3 net_4895:2 0.0661
4 net_4895:3 0.0281
5 inst_2962:A2 0.1011
*RES
2 TAUGATE_23:Z net_4895:1 0.2539
3 net_4895:1 net_4895:2 0.0765
4 net_4895:2 net_4895:3 0.1980
5 net_4895:3 inst_2962:A2 0.3226
*END

*D_NET net_5770 3.3426
*CONN
*I TAUGATE_44:Z O
*I inst_1435:A1 I
*I inst_2911:A2 I
*CAP
1 TAUGATE_44:Z 0.2766
2 net_5770:1 0.4267
3 net_5770:2 0.4596
4 net_5770:3 0.3295
5 net_5770:4 0.4724
6 net_5770:5 0.4631
7 inst_1435:A1 0.0407
8 net_5770:6 0.0346
9 net_5770:7 0.4333
10 net_5770:8 0.0645
11 inst_2911:A2 0.3416
*RES
2 TAUGATE_44:Z net_5770:1 0.4130
3 net_5770:1 net_5770:2 0.3462
4 net_5770:2 net_5770:3 0.0714
5 net_5770:3 net_5770:4 0.2110
6 net_5770:4 net_5770:5 0.2588
7 net_5770:5 inst_1435:A1 0.0339
8 net_5770:3 net_5770:6 0.4099
9 net_5770:6 net_5770:7 0.1540
10 net_5770:7 net_5770:8 0.0325
11 net_5770:8 inst_2911:A2 0.0924
*END

*D_NET net_4283 1.2932
*CONN
*I TAUGATE_32:Z O
*I inst_4468:A I
*CAP
1 TAUGATE_32:Z 0.1516
2 net_4283:1 0.4228
3 net_4283:2 0.1417
4 net_4283:3 0.3754
5 inst_4468:A 0.2016
*RES
2 TAUGATE_32:Z net_4283:1 0.0068
3 net_4283:1 net_4283:2 0.2001
4 net_4283:2 net_4283:3 0.4220
5 net_4283:3 inst_4468:A 0.4926
*END

*D_NET TAUNET_52 1.4952
*CONN
*I inst_1419:ZN O
*I TAUGATE_52:A I
*CAP
1 inst_1419:ZN 0.3810
2 TAUNET_52:1 0.2042
3 TAUNET_52:2 0.2030
4 TAUNET_52:3 0.2656
5 TAUGATE_52:A 0.4413
*RES
2 inst_1419:ZN TAUNET_52:1 0.1336
3 TAUNET_52:1 TAUNET_52:2 0.4042
4 TAUNET_52:2 TAUNET_52:3 0.0451
5 TAUNET_52:3 TAUGATE_52:A 0.2391
*END

*D_NET TAUNET_59 0.9045
*CONN
*I inst_4760:ZN O
*I TAUGATE_59:A I
*CAP
1 inst_4760:ZN 0.4146
2 TAUNET_59:1 0.2654
3 TAUGATE_59:A 0.2245
*RES
2 inst_4760:ZN TAUNET_59:1 0.4797
3 TAUNET_59:1 TAUGATE_59:A 0.0551
*END

*D_NET net_2126 1.5272
*CONN
*I TAUGATE_58:Z O
*I inst_3525:A2 I
*CAP
1 TAUGATE_58:Z 0.0973
2 net_2126:1 0.1903
3 net_2126:2 0.2143
4 net_2126:3 0.0701
5 net_2126:4 0.2421
6 net_2126:5 0.4634
7 inst_3525:A2 0.2497
*RES
2 TAUGATE_58:Z net_2126:1 0.2766
3 net_2126:1 net_2126:2 0.3086
4 net_2126:2 net_2126:3 0.2353
5 net_2126:3 net_2126:4 0.4838
6 net_2126:4 net_2126:5 0.0722
7 net_2126:5 inst_3525:A2 0.3539
*END

*D_NET TAUNET_48 1.2346
*CONN
*I inst_4507:ZN O
*I TAUGATE_48:A I
*CAP