*SPEF "IEEE 1481-1998"
*DESIGN "changes"
*DATE "Tue Dec 02 18:55:09 2014"
*VENDOR "TAU 2015 Contest"
*PROGRAM "Benchmark Parasitic Generator"
*VERSION "0.0"
*DESIGN_FLOW "NETLIST_TYPE_VERILOG"
*DIVIDER /
*DELIMITER :
*BUS_DELIMITER [ ]
*T_UNIT 1 PS
*C_UNIT 1 FF
*R_UNIT 1 KOHM
*L_UNIT 1 UH

*D_NET net_3465 18.1049
*CONN
*I TAUGATE_9:Z O
*I inst_1113:SE I
*I inst_1122:SE I
*I inst_1106:SE I
*I inst_1137:SE I
*I inst_1118:SE I
*I inst_1139:SE I
*I inst_1111:SE I
*I inst_1121:SE I
*I inst_1119:SE I
*I inst_1134:SE I
*I inst_1128:SE I
*I inst_1116:SE I
*I inst_1110:SE I
*I inst_1117:SE I
*I inst_1120:SE I
*I inst_1112:SE I
*CAP
1 TAUGATE_9:Z 0.2611
2 net_3465:1 0.4098
3 net_3465:2 0.5009
4 net_3465:3 0.2843
5 inst_1111:SE 0.2878
6 net_3465:4 0.4685
7 net_3465:5 0.3070
8 net_3465:6 0.3583
9 inst_1122:SE 0.1395
10 net_3465:7 0.4644
11 net_3465:8 0.4559
12 net_3465:9 0.4050
13 net_3465:10 0.0154
14 inst_1106:SE 0.1670
15 net_3465:11 0.2909
16 net_3465:12 0.3706
17 inst_1137:SE 0.0740
18 net_3465:13 0.0292
19 net_3465:14 0.2926
20 inst_1118:SE 0.4507
21 net_3465:15 0.3464
22 net_3465:16 0.0305
23 net_3465:17 0.2383
24 net_3465:18 0.4020
25 inst_1139:SE 0.2529
26 net_3465:19 0.1922
27 net_3465:20 0.2805
28 net_3465:21 0.1322
29 inst_1113:SE 0.1905
30 net_3465:22 0.1955
31 net_3465:23 0.1868
32 net_3465:24 0.4889
33 inst_1121:SE 0.0703
34 net_3465:25 0.0717
35 net_3465:26 0.3990
36 inst_1119:SE 0.4035
37 net_3465:27 0.3591
38 net_3465:28 0.2780
39 net_3465:29 0.2022
40 net_3465:30 0.1593
41 net_3465:31 0.4382
42 inst_1134:SE 0.3498
43 net_3465:32 0.3789
44 net_3465:33 0.3545
45 net_3465:34 0.1033
46 net_3465:35 0.4316
47 net_3465:36 0.1782
48 inst_1128:SE 0.4734
49 net_3465:37 0.2434
50 net_3465:38 0.3726
51 net_3465:39 0.2980
52 net_3465:40 0.2454
53 inst_1116:SE 0.4670
54 net_3465:41 0.3699
55 inst_1110:SE 0.4131
56 net_3465:42 0.0282
57 net_3465:43 0.3089
58 net_3465:44 0.0253
59 net_3465:45 0.3105
60 inst_1117:SE 0.1881
61 net_3465:46 0.3854
62 inst_1120:SE 0.3580
63 net_3465:47 0.2548
64 inst_1112:SE 0.2154
*RES
2 TAUGATE_9:Z net_3465:1 0.1659
3 net_3465:1 net_3465:2 0.2742
4 net_3465:2 net_3465:3 0.3494
5 net_3465:3 inst_1111:SE 0.1485
6 net_3465:3 net_3465:4 0.0646
7 net_3465:4 net_3465:5 0.0794
8 net_3465:5 net_3465:6 0.2161
9 net_3465:6 inst_1122:SE 0.1614
10 net_3465:4 net_3465:7 0.1555
11 net_3465:7 net_3465:8 0.2440
12 net_3465:8 net_3465:9 0.0332
13 net_3465:9 net_3465:10 0.0406
14 net_3465:10 inst_1106:SE 0.2732
15 net_3465:3 net_3465:11 0.4871
16 net_3465:11 net_3465:12 0.4951
17 net_3465:12 inst_1137:SE 0.4125
18 net_3465:1 net_3465:13 0.3356
19 net_3465:13 net_3465:14 0.3995
20 net_3465:14 inst_1118:SE 0.3845
21 net_3465:14 net_3465:15 0.2665
22 net_3465:15 net_3465:16 0.4354
23 net_3465:16 net_3465:17 0.1977
24 net_3465:17 net_3465:18 0.0788
25 net_3465:18 inst_1139:SE 0.3276
26 net_3465:3 net_3465:19 0.4017
27 net_3465:19 net_3465:20 0.4680
28 net_3465:20 net_3465:21 0.2976
29 net_3465:21 inst_1113:SE 0.2331
30 net_3465:17 net_3465:22 0.3298
31 net_3465:22 net_3465:23 0.4131
32 net_3465:23 net_3465:24 0.3310
33 net_3465:24 inst_1121:SE 0.2621
34 net_3465:24 net_3465:25 0.0219
35 net_3465:25 net_3465:26 0.0830
36 net_3465:26 inst_1119:SE 0.4539
37 net_3465:17 net_3465:27 0.4055
38 net_3465:27 net_3465:28 0.4519
39 net_3465:28 net_3465:29 0.4658
40 net_3465:29 net_3465:30 0.3690
41 net_3465:30 net_3465:31 0.4019
42 net_3465:31 inst_1134:SE 0.0632
43 net_3465:15 net_3465:32 0.0376
44 net_3465:32 net_3465:33 0.0972
45 net_3465:33 net_3465:34 0.3594
46 net_3465:34 net_3465:35 0.0525
47 net_3465:35 net_3465:36 0.3248
48 net_3465:36 inst_1128:SE 0.2597
49 net_3465:10 net_3465:37 0.1921
50 net_3465:37 net_3465:38 0.1376
51 net_3465:38 net_3465:39 0.4443
52 net_3465:39 net_3465:40 0.1288
53 net_3465:40 inst_1116:SE 0.3022
54 net_3465:11 net_3465:41 0.4004
55 net_3465:41 inst_1110:SE 0.4814
56 net_3465:11 net_3465:42 0.2034
57 net_3465:42 net_3465:43 0.1592
58 net_3465:43 net_3465:44 0.3147
59 net_3465:44 net_3465:45 0.2761
60 net_3465:45 inst_1117:SE 0.3643
61 net_3465:21 net_3465:46 0.3774
62 net_3465:46 inst_1120:SE 0.2731
63 net_3465:14 net_3465:47 0.4921
64 net_3465:47 inst_1112:SE 0.1648
*END

*D_NET net_2485 1.0120
*CONN
*I TAUGATE_6:Z O
*I inst_15:A I
*CAP
1 TAUGATE_6:Z 0.0112
2 net_2485:1 0.1128
3 net_2485:2 0.2239
4 net_2485:3 0.0917
5 net_2485:4 0.4230
6 inst_15:A 0.1494
*RES
2 TAUGATE_6:Z net_2485:1 0.3290
3 net_2485:1 net_2485:2 0.1620
4 net_2485:2 net_2485:3 0.0029
5 net_2485:3 net_2485:4 0.2883
6 net_2485:4 inst_15:A 0.1903
*END

*D_NET TAUNET_9 0.6766
*CONN
*I inst_4518:ZN O
*I TAUGATE_9:A I
*CAP
1 inst_4518:ZN 0.3484
2 TAUNET_9:1 0.1392
3 TAUGATE_9:A 0.1891
*RES
2 inst_4518:ZN TAUNET_9:1 0.0464
3 TAUNET_9:1 TAUGATE_9:A 0.0364
*END

*D_NET net_7103 1.0529
*CONN
*I TAUGATE_5:Z O
*I inst_3844:A1 I
*I inst_900:D I
*CAP
1 TAUGATE_5:Z 0.4104
2 net_7103:1 0.0510
3 inst_3844:A1 0.1600
4 net_7103:2 0.0580
5 inst_900:D 0.3736
*RES
2 TAUGATE_5:Z net_7103:1 0.1748
3 net_7103:1 inst_3844:A1 0.4787
4 net_7103:1 net_7103:2 0.0395
5 net_7103:2 inst_900:D 0.3644
*END

*D_NET net_2850 3.4246
*CONN
*I TAUGATE_7:Z O
*I inst_2206:A1 I
*I inst_2134:B2 I
*CAP
1 TAUGATE_7:Z 0.1977
2 net_2850:1 0.3877
3 net_2850:2 0.3882
4 net_2850:3 0.4950
5 net_2850:4 0.0413
6 net_2850:5 0.4651
7 inst_2206:A1 0.4065
8 net_2850:6 0.2195
9 net_2850:7 0.1533
10 net_2850:8 0.4091
11 inst_2134:B2 0.2613
*RES
2 TAUGATE_7:Z net_2850:1 0.3164
3 net_2850:1 net_2850:2 0.3513
4 net_2850:2 net_2850:3 0.1165
5 net_2850:3 net_2850:4 0.0986
6 net_2850:4 net_2850:5 0.2243
7 net_2850:5 inst_2206:A1 0.1286
8 net_2850:5 net_2850:6 0.3587
9 net_2850:6 net_2850:7 0.1869
10 net_2850:7 net_2850:8 0.4974
11 net_2850:8 inst_2134:B2 0.3047
*END

*D_NET TAUNET_5 0.7999
*CONN
*I inst_900:Q O
*I TAUGATE_5:A I
*CAP
1 inst_900:Q 0.4969
2 TAUNET_5:1 0.1733
3 TAUNET_5:2 0.1014
4 TAUGATE_5:A 0.0283
*RES
2 inst_900:Q TAUNET_5:1 0.2763
3 TAUNET_5:1 TAUNET_5:2 0.2945
4 TAUNET_5:2 TAUGATE_5:A 0.3177
*END

*D_NET TAUNET_8 1.2585
*CONN
*I inst_5222:ZN O
*I TAUGATE_8:A I
*CAP
1 inst_5222:ZN 0.3390
2 TAUNET_8:1 0.3404
3 TAUNET_8:2 0.1317
4 TAUNET_8:3 0.3617
5 TAUGATE_8:A 0.0856
*RES
2 inst_5222:ZN TAUNET_8:1 0.3629
3 TAUNET_8:1 TAUNET_8:2 0.2821
4 TAUNET_8:2 TAUNET_8:3 0.3900
5 TAUNET_8:3 TAUGATE_8:A 0.0557
*END

*D_NET net_470 1.5353
*CONN
*I TAUGATE_8:Z O
*I inst_1592:B1 I
*CAP
1 TAUGATE_8:Z 0.2716
2 net_470:1 0.1079
3 net_470:2 0.3323
4 net_470:3 0.2907
5 net_470:4 0.0362
6 inst_1592:B1 0.4966
*RES
2 TAUGATE_8:Z net_470:1 0.4101
3 net_470:1 net_470:2 0.2702
4 net_470:2 net_470:3 0.2135
5 net_470:3 net_470:4 0.0419
6 net_470:4 inst_1592:B1 0.2773
*END

*D_NET TAUNET_6 2.1160
*CONN
*I inst_29:ZN O
*I TAUGATE_6:A I
*CAP
1 inst_29:ZN 0.0485
2 TAUNET_6:1 0.4262
3 TAUNET_6:2 0.2009
4 TAUNET_6:3 0.3114
5 TAUNET_6:4 0.3090
6 TAUNET_6:5 0.3972
7 TAUGATE_6:A 0.4228
*RES
2 inst_29:ZN TAUNET_6:1 0.2443
3 TAUNET_6:1 TAUNET_6:2 0.2458
4 TAUNET_6:2 TAUNET_6:3 0.3734
5 TAUNET_6:3 TAUNET_6:4 0.1567
6 TAUNET_6:4 TAUNET_6:5 0.1247
7 TAUNET_6:5 TAUGATE_6:A 0.2439
*END

*D_NET TAUNET_7 1.4807
*CONN
*I inst_2161:ZN O
*I TAUGATE_7:A I
*CAP
1 inst_2161:ZN 0.4474
2 TAUNET_7:1 0.0472
3 TAUNET_7:2 0.4436
4 TAUNET_7:3 0.1981
5 TAUNET_7:4 0.3275
6 TAUGATE_7:A 0.0169
*RES
2 inst_2161:ZN TAUNET_7:1 0.4026
3 TAUNET_7:1 TAUNET_7:2 0.4684
4 TAUNET_7:2 TAUNET_7:3 0.2490
5 TAUNET_7:3 TAUNET_7:4 0.0579
6 TAUNET_7:4 TAUGATE_7:A 0.0423
*END

